data_image0
_cell_length_a       10
_cell_length_b       10
_cell_length_c       10
_cell_angle_alpha    90
_cell_angle_beta     90
_cell_angle_gamma    90

_symmetry_space_group_name_H-M    "P 1"
_symmetry_int_tables_number       1

loop_
  _symmetry_equiv_pos_as_xyz
  'x, y, z'

loop_
  _atom_site_label
  _atom_site_occupancy
  _atom_site_fract_x
  _atom_site_fract_y
  _atom_site_fract_z
  _atom_site_thermal_displace_type
  _atom_site_B_iso_or_equiv
  _atom_site_type_symbol
  C1       1.0000 0.64227  0.63795  0.48268  Biso   1.000  C
  C2       1.0000 0.48839  0.64129  0.49077  Biso   1.000  C
  C3       1.0000 0.40509  0.51141  0.48498  Biso   1.000  C
  C4       1.0000 0.47257  0.37286  0.47777  Biso   1.000  C
  C5       1.0000 0.62560  0.35930  0.48654  Biso   1.000  C
  H1       1.0000 0.69716  0.53904  0.47043  Biso   1.000  H
  H2       1.0000 0.70141  0.73525  0.48823  Biso   1.000  H
  H3       1.0000 0.43504  0.74159  0.50028  Biso   1.000  H
  H4       1.0000 0.29129  0.51804  0.48616  Biso   1.000  H
  H5       1.0000 0.40797  0.27906  0.47290  Biso   1.000  H
  H6       1.0000 0.67190  0.38490  0.38556  Biso   1.000  H
  H7       1.0000 0.65279  0.25232  0.51505  Biso   1.000  H
  H8       1.0000 0.66543  0.43102  0.56569  Biso   1.000  H
