data_image0
_cell_length_a       28.4252
_cell_length_b       42.6378
_cell_length_c       39.3476
_cell_angle_alpha    90
_cell_angle_beta     90
_cell_angle_gamma    60

_symmetry_space_group_name_H-M    "P 1"
_symmetry_int_tables_number       1

loop_
  _symmetry_equiv_pos_as_xyz
  'x, y, z'

loop_
  _atom_site_label
  _atom_site_occupancy
  _atom_site_fract_x
  _atom_site_fract_y
  _atom_site_fract_z
  _atom_site_thermal_displace_type
  _atom_site_B_iso_or_equiv
  _atom_site_type_symbol
  O1       1.0000 0.24561  0.14620  0.64000  Biso   1.000  O 
  O2       1.0000 0.29824  0.05848  0.64000  Biso   1.000  O 
  O3       1.0000 0.37720  0.09357  0.64000  Biso   1.000  O 
  O4       1.0000 0.16667  0.11111  0.64000  Biso   1.000  O 
  O5       1.0000 0.32456  0.18129  0.64000  Biso   1.000  O 
  O6       1.0000 0.11403  0.19883  0.64000  Biso   1.000  O 
  O7       1.0000 0.19298  0.23392  0.64000  Biso   1.000  O 
  O8       1.0000 0.45614  0.12865  0.64000  Biso   1.000  O 
  O9       1.0000 0.00877  0.04094  0.64000  Biso   1.000  O 
  O10      1.0000 0.08772  0.07602  0.64000  Biso   1.000  O 
  O11      1.0000 0.40351  0.21637  0.64000  Biso   1.000  O 
  O12      1.0000 0.48245  0.25146  0.64000  Biso   1.000  O 
  O13      1.0000 0.03509  0.16374  0.64000  Biso   1.000  O 
  O14      1.0000 0.27193  0.26901  0.64000  Biso   1.000  O 
  O15      1.0000 0.35087  0.30409  0.64000  Biso   1.000  O 
  O16      1.0000 0.21930  0.02339  0.64000  Biso   1.000  O 
  O17      1.0000 0.24562  0.47953  0.64000  Biso   1.000  O 
  O18      1.0000 0.29824  0.39181  0.64000  Biso   1.000  O 
  O19      1.0000 0.37719  0.42690  0.64000  Biso   1.000  O 
  O20      1.0000 0.16666  0.44444  0.64000  Biso   1.000  O 
  O21      1.0000 0.32456  0.51462  0.64000  Biso   1.000  O 
  O22      1.0000 0.11403  0.53216  0.64000  Biso   1.000  O 
  O23      1.0000 0.19298  0.56725  0.64000  Biso   1.000  O 
  O24      1.0000 0.45614  0.46199  0.64000  Biso   1.000  O 
  O25      1.0000 0.00877  0.37427  0.64000  Biso   1.000  O 
  O26      1.0000 0.08772  0.40936  0.64000  Biso   1.000  O 
  O27      1.0000 0.40351  0.54971  0.64000  Biso   1.000  O 
  O28      1.0000 0.48245  0.58480  0.64000  Biso   1.000  O 
  O29      1.0000 0.03509  0.49708  0.64000  Biso   1.000  O 
  O30      1.0000 0.27193  0.60234  0.64000  Biso   1.000  O 
  O31      1.0000 0.35087  0.63743  0.64000  Biso   1.000  O 
  O32      1.0000 0.21930  0.35673  0.64000  Biso   1.000  O 
  O33      1.0000 0.24562  0.81287  0.64000  Biso   1.000  O 
  O34      1.0000 0.29824  0.72515  0.64000  Biso   1.000  O 
  O35      1.0000 0.37719  0.76023  0.64000  Biso   1.000  O 
  O36      1.0000 0.16667  0.77778  0.64000  Biso   1.000  O 
  O37      1.0000 0.32456  0.84795  0.64000  Biso   1.000  O 
  O38      1.0000 0.11403  0.86550  0.64000  Biso   1.000  O 
  O39      1.0000 0.19298  0.90058  0.64000  Biso   1.000  O 
  O40      1.0000 0.45614  0.79532  0.64000  Biso   1.000  O 
  O41      1.0000 0.00877  0.70760  0.64000  Biso   1.000  O 
  O42      1.0000 0.08772  0.74269  0.64000  Biso   1.000  O 
  O43      1.0000 0.40351  0.88304  0.64000  Biso   1.000  O 
  O44      1.0000 0.48245  0.91813  0.64000  Biso   1.000  O 
  O45      1.0000 0.03509  0.83041  0.64000  Biso   1.000  O 
  O46      1.0000 0.27193  0.93567  0.64000  Biso   1.000  O 
  O47      1.0000 0.35087  0.97076  0.64000  Biso   1.000  O 
  O48      1.0000 0.21930  0.69006  0.64000  Biso   1.000  O 
  O49      1.0000 0.74561  0.14620  0.64000  Biso   1.000  O 
  O50      1.0000 0.79824  0.05848  0.64000  Biso   1.000  O 
  O51      1.0000 0.87720  0.09357  0.64000  Biso   1.000  O 
  O52      1.0000 0.66666  0.11111  0.64000  Biso   1.000  O 
  O53      1.0000 0.82456  0.18129  0.64000  Biso   1.000  O 
  O54      1.0000 0.61403  0.19883  0.64000  Biso   1.000  O 
  O55      1.0000 0.69298  0.23392  0.64000  Biso   1.000  O 
  O56      1.0000 0.95614  0.12865  0.64000  Biso   1.000  O 
  O57      1.0000 0.50877  0.04094  0.64000  Biso   1.000  O 
  O58      1.0000 0.58772  0.07602  0.64000  Biso   1.000  O 
  O59      1.0000 0.90351  0.21637  0.64000  Biso   1.000  O 
  O60      1.0000 0.98245  0.25146  0.64000  Biso   1.000  O 
  O61      1.0000 0.53509  0.16374  0.64000  Biso   1.000  O 
  O62      1.0000 0.77193  0.26901  0.64000  Biso   1.000  O 
  O63      1.0000 0.85088  0.30409  0.64000  Biso   1.000  O 
  O64      1.0000 0.71930  0.02339  0.64000  Biso   1.000  O 
  O65      1.0000 0.74561  0.47953  0.64000  Biso   1.000  O 
  O66      1.0000 0.79824  0.39181  0.64000  Biso   1.000  O 
  O67      1.0000 0.87720  0.42690  0.64000  Biso   1.000  O 
  O68      1.0000 0.66667  0.44444  0.64000  Biso   1.000  O 
  O69      1.0000 0.82456  0.51462  0.64000  Biso   1.000  O 
  O70      1.0000 0.61403  0.53216  0.64000  Biso   1.000  O 
  O71      1.0000 0.69298  0.56725  0.64000  Biso   1.000  O 
  O72      1.0000 0.95614  0.46199  0.64000  Biso   1.000  O 
  O73      1.0000 0.50877  0.37427  0.64000  Biso   1.000  O 
  O74      1.0000 0.58772  0.40936  0.64000  Biso   1.000  O 
  O75      1.0000 0.90351  0.54971  0.64000  Biso   1.000  O 
  O76      1.0000 0.98245  0.58480  0.64000  Biso   1.000  O 
  O77      1.0000 0.53509  0.49708  0.64000  Biso   1.000  O 
  O78      1.0000 0.77193  0.60234  0.64000  Biso   1.000  O 
  O79      1.0000 0.85088  0.63743  0.64000  Biso   1.000  O 
  O80      1.0000 0.71930  0.35673  0.64000  Biso   1.000  O 
  O81      1.0000 0.74561  0.81287  0.64000  Biso   1.000  O 
  O82      1.0000 0.79824  0.72515  0.64000  Biso   1.000  O 
  O83      1.0000 0.87719  0.76023  0.64000  Biso   1.000  O 
  O84      1.0000 0.66666  0.77778  0.64000  Biso   1.000  O 
  O85      1.0000 0.82456  0.84795  0.64000  Biso   1.000  O 
  O86      1.0000 0.61403  0.86550  0.64000  Biso   1.000  O 
  O87      1.0000 0.69298  0.90058  0.64000  Biso   1.000  O 
  O88      1.0000 0.95614  0.79532  0.64000  Biso   1.000  O 
  O89      1.0000 0.50877  0.70760  0.64000  Biso   1.000  O 
  O90      1.0000 0.58772  0.74269  0.64000  Biso   1.000  O 
  O91      1.0000 0.90351  0.88304  0.64000  Biso   1.000  O 
  O92      1.0000 0.98245  0.91813  0.64000  Biso   1.000  O 
  O93      1.0000 0.53509  0.83041  0.64000  Biso   1.000  O 
  O94      1.0000 0.77193  0.93567  0.64000  Biso   1.000  O 
  O95      1.0000 0.85087  0.97076  0.64000  Biso   1.000  O 
  O96      1.0000 0.71930  0.69006  0.64000  Biso   1.000  O 
  Pd1      1.0000 0.24561  0.14620  0.67812  Biso   1.000  Pd
  Pd2      1.0000 0.02743  0.36442  0.67812  Biso   1.000  Pd
  Pd3      1.0000 0.80925  0.58264  0.67812  Biso   1.000  Pd
  Pd4      1.0000 0.59107  0.80086  0.67812  Biso   1.000  Pd
  Pd5      1.0000 0.37289  0.01909  0.67812  Biso   1.000  Pd
  Pd6      1.0000 0.15471  0.23731  0.67812  Biso   1.000  Pd
  Pd7      1.0000 0.93652  0.45553  0.67812  Biso   1.000  Pd
  Pd8      1.0000 0.71834  0.67375  0.67812  Biso   1.000  Pd
  Pd9      1.0000 0.50016  0.89197  0.67812  Biso   1.000  Pd
  Pd10     1.0000 0.28198  0.11019  0.67812  Biso   1.000  Pd
  Pd11     1.0000 0.06380  0.32841  0.67812  Biso   1.000  Pd
  Pd12     1.0000 0.84561  0.54663  0.67812  Biso   1.000  Pd
  Pd13     1.0000 0.62743  0.76486  0.67812  Biso   1.000  Pd
  Pd14     1.0000 0.40925  0.98308  0.67812  Biso   1.000  Pd
  Pd15     1.0000 0.19107  0.20130  0.67812  Biso   1.000  Pd
  Pd16     1.0000 0.24561  0.14620  0.67812  Biso   1.000  Pd
  Pd17     1.0000 0.21701  0.18435  0.67812  Biso   1.000  Pd
  Pd18     1.0000 0.18841  0.22250  0.67812  Biso   1.000  Pd
  Pd19     1.0000 0.15980  0.26065  0.67812  Biso   1.000  Pd
  Pd20     1.0000 0.13120  0.29880  0.67812  Biso   1.000  Pd
  Pd21     1.0000 0.10259  0.33695  0.67812  Biso   1.000  Pd
  Pd22     1.0000 0.07399  0.37510  0.67812  Biso   1.000  Pd
  Pd23     1.0000 0.04539  0.41325  0.67812  Biso   1.000  Pd
  Pd24     1.0000 0.01678  0.45140  0.67812  Biso   1.000  Pd
  Pd25     1.0000 0.98818  0.48955  0.67812  Biso   1.000  Pd
  Pd26     1.0000 0.24561  0.14620  0.67812  Biso   1.000  Pd
  Pd27     1.0000 0.18841  0.22250  0.67812  Biso   1.000  Pd
  Pd28     1.0000 0.13120  0.29880  0.67812  Biso   1.000  Pd
  Pd29     1.0000 0.07399  0.37510  0.67812  Biso   1.000  Pd
  Pd30     1.0000 0.01678  0.45140  0.67812  Biso   1.000  Pd
  Pd31     1.0000 0.95957  0.52769  0.67812  Biso   1.000  Pd
  Pd32     1.0000 0.90237  0.60399  0.67812  Biso   1.000  Pd
  Pd33     1.0000 0.84516  0.68029  0.67812  Biso   1.000  Pd
  Pd34     1.0000 0.78795  0.75659  0.67812  Biso   1.000  Pd
  Pd35     1.0000 0.73074  0.83289  0.67812  Biso   1.000  Pd
  Pd36     1.0000 0.24561  0.14620  0.67812  Biso   1.000  Pd
  Pd37     1.0000 0.13325  0.25858  0.67812  Biso   1.000  Pd
  Pd38     1.0000 0.02089  0.37097  0.67812  Biso   1.000  Pd
  Pd39     1.0000 0.90852  0.48335  0.67812  Biso   1.000  Pd
  Pd40     1.0000 0.79616  0.59574  0.67812  Biso   1.000  Pd
  Pd41     1.0000 0.68380  0.70812  0.67812  Biso   1.000  Pd
  Pd42     1.0000 0.57143  0.82050  0.67812  Biso   1.000  Pd
  Pd43     1.0000 0.45907  0.93289  0.67812  Biso   1.000  Pd
  Pd44     1.0000 0.34671  0.04527  0.67812  Biso   1.000  Pd
  Pd45     1.0000 0.23434  0.15766  0.67812  Biso   1.000  Pd
