data_image0
_chemical_formula_structural       O625Pd28
_chemical_formula_sum              "O625 Pd28"
_cell_length_a       81.6405
_cell_length_b       81.6275
_cell_length_c       120.116
_cell_angle_alpha    90
_cell_angle_beta     90
_cell_angle_gamma    119.996

_space_group_name_H-M_alt    "P 1"
_space_group_IT_number       1

loop_
  _space_group_symop_operation_xyz
  'x, y, z'

loop_
  _atom_site_type_symbol
  _atom_site_label
  _atom_site_symmetry_multiplicity
  _atom_site_fract_x
  _atom_site_fract_y
  _atom_site_fract_z
  _atom_site_occupancy
  O   O1        1.0  0.01291  0.02631  0.44306  1.0000
  O   O2        1.0  0.01291  0.06631  0.44306  1.0000
  O   O3        1.0  0.01291  0.10631  0.44306  1.0000
  O   O4        1.0  0.01291  0.14631  0.44306  1.0000
  O   O5        1.0  0.01291  0.18631  0.44306  1.0000
  O   O6        1.0  0.05291  0.02631  0.44306  1.0000
  O   O7        1.0  0.05291  0.06631  0.44306  1.0000
  O   O8        1.0  0.05291  0.10631  0.44306  1.0000
  O   O9        1.0  0.05291  0.14631  0.44306  1.0000
  O   O10       1.0  0.05291  0.18631  0.44306  1.0000
  O   O11       1.0  0.09291  0.02631  0.44306  1.0000
  O   O12       1.0  0.09291  0.06631  0.44306  1.0000
  O   O13       1.0  0.09291  0.10631  0.44306  1.0000
  O   O14       1.0  0.09291  0.14631  0.44306  1.0000
  O   O15       1.0  0.09291  0.18631  0.44306  1.0000
  O   O16       1.0  0.13291  0.02631  0.44306  1.0000
  O   O17       1.0  0.13291  0.06631  0.44306  1.0000
  O   O18       1.0  0.13291  0.10631  0.44306  1.0000
  O   O19       1.0  0.13291  0.14631  0.44306  1.0000
  O   O20       1.0  0.13291  0.18631  0.44306  1.0000
  O   O21       1.0  0.17291  0.02631  0.44306  1.0000
  O   O22       1.0  0.17291  0.06631  0.44306  1.0000
  O   O23       1.0  0.17291  0.10631  0.44306  1.0000
  O   O24       1.0  0.17291  0.14631  0.44306  1.0000
  O   O25       1.0  0.17291  0.18631  0.44306  1.0000
  O   O26       1.0  0.01291  0.22631  0.44306  1.0000
  O   O27       1.0  0.01291  0.26631  0.44306  1.0000
  O   O28       1.0  0.01291  0.30631  0.44306  1.0000
  O   O29       1.0  0.01291  0.34631  0.44306  1.0000
  O   O30       1.0  0.01291  0.38631  0.44306  1.0000
  O   O31       1.0  0.05291  0.22631  0.44306  1.0000
  O   O32       1.0  0.05291  0.26631  0.44306  1.0000
  O   O33       1.0  0.05291  0.30631  0.44306  1.0000
  O   O34       1.0  0.05291  0.34631  0.44306  1.0000
  O   O35       1.0  0.05291  0.38631  0.44306  1.0000
  O   O36       1.0  0.09291  0.22631  0.44306  1.0000
  O   O37       1.0  0.09291  0.26631  0.44306  1.0000
  O   O38       1.0  0.09291  0.30631  0.44306  1.0000
  O   O39       1.0  0.09291  0.34631  0.44306  1.0000
  O   O40       1.0  0.09291  0.38631  0.44306  1.0000
  O   O41       1.0  0.13291  0.22631  0.44306  1.0000
  O   O42       1.0  0.13291  0.26631  0.44306  1.0000
  O   O43       1.0  0.13291  0.30631  0.44306  1.0000
  O   O44       1.0  0.13291  0.34631  0.44306  1.0000
  O   O45       1.0  0.13291  0.38631  0.44306  1.0000
  O   O46       1.0  0.17291  0.22631  0.44306  1.0000
  O   O47       1.0  0.17291  0.26631  0.44306  1.0000
  O   O48       1.0  0.17291  0.30631  0.44306  1.0000
  O   O49       1.0  0.17291  0.34631  0.44306  1.0000
  O   O50       1.0  0.17291  0.38631  0.44306  1.0000
  O   O51       1.0  0.01291  0.42631  0.44306  1.0000
  O   O52       1.0  0.01291  0.46631  0.44306  1.0000
  O   O53       1.0  0.01291  0.50631  0.44306  1.0000
  O   O54       1.0  0.01291  0.54631  0.44306  1.0000
  O   O55       1.0  0.01291  0.58631  0.44306  1.0000
  O   O56       1.0  0.05291  0.42631  0.44306  1.0000
  O   O57       1.0  0.05291  0.46631  0.44306  1.0000
  O   O58       1.0  0.05291  0.50631  0.44306  1.0000
  O   O59       1.0  0.05291  0.54631  0.44306  1.0000
  O   O60       1.0  0.05291  0.58631  0.44306  1.0000
  O   O61       1.0  0.09291  0.42631  0.44306  1.0000
  O   O62       1.0  0.09291  0.46631  0.44306  1.0000
  O   O63       1.0  0.09291  0.50631  0.44306  1.0000
  O   O64       1.0  0.09291  0.54631  0.44306  1.0000
  O   O65       1.0  0.09291  0.58631  0.44306  1.0000
  O   O66       1.0  0.13291  0.42631  0.44306  1.0000
  O   O67       1.0  0.13291  0.46631  0.44306  1.0000
  O   O68       1.0  0.13291  0.50631  0.44306  1.0000
  O   O69       1.0  0.13291  0.54631  0.44306  1.0000
  O   O70       1.0  0.13291  0.58631  0.44306  1.0000
  O   O71       1.0  0.17291  0.42631  0.44306  1.0000
  O   O72       1.0  0.17291  0.46631  0.44306  1.0000
  O   O73       1.0  0.17291  0.50631  0.44306  1.0000
  O   O74       1.0  0.17291  0.54631  0.44306  1.0000
  O   O75       1.0  0.17291  0.58631  0.44306  1.0000
  O   O76       1.0  0.01291  0.62631  0.44306  1.0000
  O   O77       1.0  0.01291  0.66631  0.44306  1.0000
  O   O78       1.0  0.01291  0.70631  0.44306  1.0000
  O   O79       1.0  0.01291  0.74631  0.44306  1.0000
  O   O80       1.0  0.01291  0.78631  0.44306  1.0000
  O   O81       1.0  0.05291  0.62631  0.44306  1.0000
  O   O82       1.0  0.05291  0.66631  0.44306  1.0000
  O   O83       1.0  0.05291  0.70631  0.44306  1.0000
  O   O84       1.0  0.05291  0.74631  0.44306  1.0000
  O   O85       1.0  0.05291  0.78631  0.44306  1.0000
  O   O86       1.0  0.09291  0.62631  0.44306  1.0000
  O   O87       1.0  0.09291  0.66631  0.44306  1.0000
  O   O88       1.0  0.09291  0.70631  0.44306  1.0000
  O   O89       1.0  0.09291  0.74631  0.44306  1.0000
  O   O90       1.0  0.09291  0.78631  0.44306  1.0000
  O   O91       1.0  0.13291  0.62631  0.44306  1.0000
  O   O92       1.0  0.13291  0.66631  0.44306  1.0000
  O   O93       1.0  0.13291  0.70631  0.44306  1.0000
  O   O94       1.0  0.13291  0.74631  0.44306  1.0000
  O   O95       1.0  0.13291  0.78631  0.44306  1.0000
  O   O96       1.0  0.17291  0.62631  0.44306  1.0000
  O   O97       1.0  0.17291  0.66631  0.44306  1.0000
  O   O98       1.0  0.17291  0.70631  0.44306  1.0000
  O   O99       1.0  0.17291  0.74631  0.44306  1.0000
  O   O100      1.0  0.17291  0.78631  0.44306  1.0000
  O   O101      1.0  0.01291  0.82631  0.44306  1.0000
  O   O102      1.0  0.01291  0.86631  0.44306  1.0000
  O   O103      1.0  0.01291  0.90631  0.44306  1.0000
  O   O104      1.0  0.01291  0.94631  0.44306  1.0000
  O   O105      1.0  0.01291  0.98631  0.44306  1.0000
  O   O106      1.0  0.05291  0.82631  0.44306  1.0000
  O   O107      1.0  0.05291  0.86631  0.44306  1.0000
  O   O108      1.0  0.05291  0.90631  0.44306  1.0000
  O   O109      1.0  0.05291  0.94631  0.44306  1.0000
  O   O110      1.0  0.05291  0.98631  0.44306  1.0000
  O   O111      1.0  0.09291  0.82631  0.44306  1.0000
  O   O112      1.0  0.09291  0.86631  0.44306  1.0000
  O   O113      1.0  0.09291  0.90631  0.44306  1.0000
  O   O114      1.0  0.09291  0.94631  0.44306  1.0000
  O   O115      1.0  0.09291  0.98631  0.44306  1.0000
  O   O116      1.0  0.13291  0.82631  0.44306  1.0000
  O   O117      1.0  0.13291  0.86631  0.44306  1.0000
  O   O118      1.0  0.13291  0.90631  0.44306  1.0000
  O   O119      1.0  0.13291  0.94631  0.44306  1.0000
  O   O120      1.0  0.13291  0.98631  0.44306  1.0000
  O   O121      1.0  0.17291  0.82631  0.44306  1.0000
  O   O122      1.0  0.17291  0.86631  0.44306  1.0000
  O   O123      1.0  0.17291  0.90631  0.44306  1.0000
  O   O124      1.0  0.17291  0.94631  0.44306  1.0000
  O   O125      1.0  0.17291  0.98631  0.44306  1.0000
  O   O126      1.0  0.21291  0.02631  0.44306  1.0000
  O   O127      1.0  0.21291  0.06631  0.44306  1.0000
  O   O128      1.0  0.21291  0.10631  0.44306  1.0000
  O   O129      1.0  0.21291  0.14631  0.44306  1.0000
  O   O130      1.0  0.21291  0.18631  0.44306  1.0000
  O   O131      1.0  0.25291  0.02631  0.44306  1.0000
  O   O132      1.0  0.25291  0.06631  0.44306  1.0000
  O   O133      1.0  0.25291  0.10631  0.44306  1.0000
  O   O134      1.0  0.25291  0.14631  0.44306  1.0000
  O   O135      1.0  0.25291  0.18631  0.44306  1.0000
  O   O136      1.0  0.29291  0.02631  0.44306  1.0000
  O   O137      1.0  0.29291  0.06631  0.44306  1.0000
  O   O138      1.0  0.29291  0.10631  0.44306  1.0000
  O   O139      1.0  0.29291  0.14631  0.44306  1.0000
  O   O140      1.0  0.29291  0.18631  0.44306  1.0000
  O   O141      1.0  0.33291  0.02631  0.44306  1.0000
  O   O142      1.0  0.33291  0.06631  0.44306  1.0000
  O   O143      1.0  0.33291  0.10631  0.44306  1.0000
  O   O144      1.0  0.33291  0.14631  0.44306  1.0000
  O   O145      1.0  0.33291  0.18631  0.44306  1.0000
  O   O146      1.0  0.37291  0.02631  0.44306  1.0000
  O   O147      1.0  0.37291  0.06631  0.44306  1.0000
  O   O148      1.0  0.37291  0.10631  0.44306  1.0000
  O   O149      1.0  0.37291  0.14631  0.44306  1.0000
  O   O150      1.0  0.37291  0.18631  0.44306  1.0000
  O   O151      1.0  0.21291  0.22631  0.44306  1.0000
  O   O152      1.0  0.21291  0.26631  0.44306  1.0000
  O   O153      1.0  0.21291  0.30631  0.44306  1.0000
  O   O154      1.0  0.21291  0.34631  0.44306  1.0000
  O   O155      1.0  0.21291  0.38631  0.44306  1.0000
  O   O156      1.0  0.25291  0.22631  0.44306  1.0000
  O   O157      1.0  0.25291  0.26631  0.44306  1.0000
  O   O158      1.0  0.25291  0.30631  0.44306  1.0000
  O   O159      1.0  0.25291  0.34631  0.44306  1.0000
  O   O160      1.0  0.25291  0.38631  0.44306  1.0000
  O   O161      1.0  0.29291  0.22631  0.44306  1.0000
  O   O162      1.0  0.29291  0.26631  0.44306  1.0000
  O   O163      1.0  0.29291  0.30631  0.44306  1.0000
  O   O164      1.0  0.29291  0.34631  0.44306  1.0000
  O   O165      1.0  0.29291  0.38631  0.44306  1.0000
  O   O166      1.0  0.33291  0.22631  0.44306  1.0000
  O   O167      1.0  0.33291  0.26631  0.44306  1.0000
  O   O168      1.0  0.33291  0.30631  0.44306  1.0000
  O   O169      1.0  0.33291  0.34631  0.44306  1.0000
  O   O170      1.0  0.33291  0.38631  0.44306  1.0000
  O   O171      1.0  0.37291  0.22631  0.44306  1.0000
  O   O172      1.0  0.37291  0.26631  0.44306  1.0000
  O   O173      1.0  0.37291  0.30631  0.44306  1.0000
  O   O174      1.0  0.37291  0.34631  0.44306  1.0000
  O   O175      1.0  0.37291  0.38631  0.44306  1.0000
  O   O176      1.0  0.21291  0.42631  0.44306  1.0000
  O   O177      1.0  0.21291  0.46631  0.44306  1.0000
  O   O178      1.0  0.21291  0.50631  0.44306  1.0000
  O   O179      1.0  0.21291  0.54631  0.44306  1.0000
  O   O180      1.0  0.21291  0.58631  0.44306  1.0000
  O   O181      1.0  0.25291  0.42631  0.44306  1.0000
  O   O182      1.0  0.25291  0.46631  0.44306  1.0000
  O   O183      1.0  0.25291  0.50631  0.44306  1.0000
  O   O184      1.0  0.25291  0.54631  0.44306  1.0000
  O   O185      1.0  0.25291  0.58631  0.44306  1.0000
  O   O186      1.0  0.29291  0.42631  0.44306  1.0000
  O   O187      1.0  0.29291  0.46631  0.44306  1.0000
  O   O188      1.0  0.29291  0.50631  0.44306  1.0000
  O   O189      1.0  0.29291  0.54631  0.44306  1.0000
  O   O190      1.0  0.29291  0.58631  0.44306  1.0000
  O   O191      1.0  0.33291  0.42631  0.44306  1.0000
  O   O192      1.0  0.33291  0.46631  0.44306  1.0000
  O   O193      1.0  0.33291  0.50631  0.44306  1.0000
  O   O194      1.0  0.33291  0.54631  0.44306  1.0000
  O   O195      1.0  0.33291  0.58631  0.44306  1.0000
  O   O196      1.0  0.37291  0.42631  0.44306  1.0000
  O   O197      1.0  0.37291  0.46631  0.44306  1.0000
  O   O198      1.0  0.37291  0.50631  0.44306  1.0000
  O   O199      1.0  0.37291  0.54631  0.44306  1.0000
  O   O200      1.0  0.37291  0.58631  0.44306  1.0000
  O   O201      1.0  0.21291  0.62631  0.44306  1.0000
  O   O202      1.0  0.21291  0.66631  0.44306  1.0000
  O   O203      1.0  0.21291  0.70631  0.44306  1.0000
  O   O204      1.0  0.21291  0.74631  0.44306  1.0000
  O   O205      1.0  0.21291  0.78631  0.44306  1.0000
  O   O206      1.0  0.25291  0.62631  0.44306  1.0000
  O   O207      1.0  0.25291  0.66631  0.44306  1.0000
  O   O208      1.0  0.25291  0.70631  0.44306  1.0000
  O   O209      1.0  0.25291  0.74631  0.44306  1.0000
  O   O210      1.0  0.25291  0.78631  0.44306  1.0000
  O   O211      1.0  0.29291  0.62631  0.44306  1.0000
  O   O212      1.0  0.29291  0.66631  0.44306  1.0000
  O   O213      1.0  0.29291  0.70631  0.44306  1.0000
  O   O214      1.0  0.29291  0.74631  0.44306  1.0000
  O   O215      1.0  0.29291  0.78631  0.44306  1.0000
  O   O216      1.0  0.33291  0.62631  0.44306  1.0000
  O   O217      1.0  0.33291  0.66631  0.44306  1.0000
  O   O218      1.0  0.33291  0.70631  0.44306  1.0000
  O   O219      1.0  0.33291  0.74631  0.44306  1.0000
  O   O220      1.0  0.33291  0.78631  0.44306  1.0000
  O   O221      1.0  0.37291  0.62631  0.44306  1.0000
  O   O222      1.0  0.37291  0.66631  0.44306  1.0000
  O   O223      1.0  0.37291  0.70631  0.44306  1.0000
  O   O224      1.0  0.37291  0.74631  0.44306  1.0000
  O   O225      1.0  0.37291  0.78631  0.44306  1.0000
  O   O226      1.0  0.21291  0.82631  0.44306  1.0000
  O   O227      1.0  0.21291  0.86631  0.44306  1.0000
  O   O228      1.0  0.21291  0.90631  0.44306  1.0000
  O   O229      1.0  0.21291  0.94631  0.44306  1.0000
  O   O230      1.0  0.21291  0.98631  0.44306  1.0000
  O   O231      1.0  0.25291  0.82631  0.44306  1.0000
  O   O232      1.0  0.25291  0.86631  0.44306  1.0000
  O   O233      1.0  0.25291  0.90631  0.44306  1.0000
  O   O234      1.0  0.25291  0.94631  0.44306  1.0000
  O   O235      1.0  0.25291  0.98631  0.44306  1.0000
  O   O236      1.0  0.29291  0.82631  0.44306  1.0000
  O   O237      1.0  0.29291  0.86631  0.44306  1.0000
  O   O238      1.0  0.29291  0.90631  0.44306  1.0000
  O   O239      1.0  0.29291  0.94631  0.44306  1.0000
  O   O240      1.0  0.29291  0.98631  0.44306  1.0000
  O   O241      1.0  0.33291  0.82631  0.44306  1.0000
  O   O242      1.0  0.33291  0.86631  0.44306  1.0000
  O   O243      1.0  0.33291  0.90631  0.44306  1.0000
  O   O244      1.0  0.33291  0.94631  0.44306  1.0000
  O   O245      1.0  0.33291  0.98631  0.44306  1.0000
  O   O246      1.0  0.37291  0.82631  0.44306  1.0000
  O   O247      1.0  0.37291  0.86631  0.44306  1.0000
  O   O248      1.0  0.37291  0.90631  0.44306  1.0000
  O   O249      1.0  0.37291  0.94631  0.44306  1.0000
  O   O250      1.0  0.37291  0.98631  0.44306  1.0000
  O   O251      1.0  0.41291  0.02631  0.44306  1.0000
  O   O252      1.0  0.41291  0.06631  0.44306  1.0000
  O   O253      1.0  0.41291  0.10631  0.44306  1.0000
  O   O254      1.0  0.41291  0.14631  0.44306  1.0000
  O   O255      1.0  0.41291  0.18631  0.44306  1.0000
  O   O256      1.0  0.45291  0.02631  0.44306  1.0000
  O   O257      1.0  0.45291  0.06631  0.44306  1.0000
  O   O258      1.0  0.45291  0.10631  0.44306  1.0000
  O   O259      1.0  0.45291  0.14631  0.44306  1.0000
  O   O260      1.0  0.45291  0.18631  0.44306  1.0000
  O   O261      1.0  0.49291  0.02631  0.44306  1.0000
  O   O262      1.0  0.49291  0.06631  0.44306  1.0000
  O   O263      1.0  0.49291  0.10631  0.44306  1.0000
  O   O264      1.0  0.49291  0.14631  0.44306  1.0000
  O   O265      1.0  0.49291  0.18631  0.44306  1.0000
  O   O266      1.0  0.53291  0.02631  0.44306  1.0000
  O   O267      1.0  0.53291  0.06631  0.44306  1.0000
  O   O268      1.0  0.53291  0.10631  0.44306  1.0000
  O   O269      1.0  0.53291  0.14631  0.44306  1.0000
  O   O270      1.0  0.53291  0.18631  0.44306  1.0000
  O   O271      1.0  0.57291  0.02631  0.44306  1.0000
  O   O272      1.0  0.57291  0.06631  0.44306  1.0000
  O   O273      1.0  0.57291  0.10631  0.44306  1.0000
  O   O274      1.0  0.57291  0.14631  0.44306  1.0000
  O   O275      1.0  0.57291  0.18631  0.44306  1.0000
  O   O276      1.0  0.41291  0.22631  0.44306  1.0000
  O   O277      1.0  0.41291  0.26631  0.44306  1.0000
  O   O278      1.0  0.41291  0.30631  0.44306  1.0000
  O   O279      1.0  0.41291  0.34631  0.44306  1.0000
  O   O280      1.0  0.41291  0.38631  0.44306  1.0000
  O   O281      1.0  0.45291  0.22631  0.44306  1.0000
  O   O282      1.0  0.45291  0.26631  0.44306  1.0000
  O   O283      1.0  0.45291  0.30631  0.44306  1.0000
  O   O284      1.0  0.45291  0.34631  0.44306  1.0000
  O   O285      1.0  0.45291  0.38631  0.44306  1.0000
  O   O286      1.0  0.49291  0.22631  0.44306  1.0000
  O   O287      1.0  0.49291  0.26631  0.44306  1.0000
  O   O288      1.0  0.49291  0.30631  0.44306  1.0000
  O   O289      1.0  0.49291  0.34631  0.44306  1.0000
  O   O290      1.0  0.49291  0.38631  0.44306  1.0000
  O   O291      1.0  0.53291  0.22631  0.44306  1.0000
  O   O292      1.0  0.53291  0.26631  0.44306  1.0000
  O   O293      1.0  0.53291  0.30631  0.44306  1.0000
  O   O294      1.0  0.53291  0.34631  0.44306  1.0000
  O   O295      1.0  0.53291  0.38631  0.44306  1.0000
  O   O296      1.0  0.57291  0.22631  0.44306  1.0000
  O   O297      1.0  0.57291  0.26631  0.44306  1.0000
  O   O298      1.0  0.57291  0.30631  0.44306  1.0000
  O   O299      1.0  0.57291  0.34631  0.44306  1.0000
  O   O300      1.0  0.57291  0.38631  0.44306  1.0000
  O   O301      1.0  0.41291  0.42631  0.44306  1.0000
  O   O302      1.0  0.41291  0.46631  0.44306  1.0000
  O   O303      1.0  0.41291  0.50631  0.44306  1.0000
  O   O304      1.0  0.41291  0.54631  0.44306  1.0000
  O   O305      1.0  0.41291  0.58631  0.44306  1.0000
  O   O306      1.0  0.45291  0.42631  0.44306  1.0000
  O   O307      1.0  0.45291  0.46631  0.44306  1.0000
  O   O308      1.0  0.45291  0.50631  0.44306  1.0000
  O   O309      1.0  0.45291  0.54631  0.44306  1.0000
  O   O310      1.0  0.45291  0.58631  0.44306  1.0000
  O   O311      1.0  0.49291  0.42631  0.44306  1.0000
  O   O312      1.0  0.49291  0.46631  0.44306  1.0000
  O   O313      1.0  0.49291  0.50631  0.44306  1.0000
  O   O314      1.0  0.49291  0.54631  0.44306  1.0000
  O   O315      1.0  0.49291  0.58631  0.44306  1.0000
  O   O316      1.0  0.53291  0.42631  0.44306  1.0000
  O   O317      1.0  0.53291  0.46631  0.44306  1.0000
  O   O318      1.0  0.53291  0.50631  0.44306  1.0000
  O   O319      1.0  0.53291  0.54631  0.44306  1.0000
  O   O320      1.0  0.53291  0.58631  0.44306  1.0000
  O   O321      1.0  0.57291  0.42631  0.44306  1.0000
  O   O322      1.0  0.57291  0.46631  0.44306  1.0000
  O   O323      1.0  0.57291  0.50631  0.44306  1.0000
  O   O324      1.0  0.57291  0.54631  0.44306  1.0000
  O   O325      1.0  0.57291  0.58631  0.44306  1.0000
  O   O326      1.0  0.41291  0.62631  0.44306  1.0000
  O   O327      1.0  0.41291  0.66631  0.44306  1.0000
  O   O328      1.0  0.41291  0.70631  0.44306  1.0000
  O   O329      1.0  0.41291  0.74631  0.44306  1.0000
  O   O330      1.0  0.41291  0.78631  0.44306  1.0000
  O   O331      1.0  0.45291  0.62631  0.44306  1.0000
  O   O332      1.0  0.45291  0.66631  0.44306  1.0000
  O   O333      1.0  0.45291  0.70631  0.44306  1.0000
  O   O334      1.0  0.45291  0.74631  0.44306  1.0000
  O   O335      1.0  0.45291  0.78631  0.44306  1.0000
  O   O336      1.0  0.49291  0.62631  0.44306  1.0000
  O   O337      1.0  0.49291  0.66631  0.44306  1.0000
  O   O338      1.0  0.49291  0.70631  0.44306  1.0000
  O   O339      1.0  0.49291  0.74631  0.44306  1.0000
  O   O340      1.0  0.49291  0.78631  0.44306  1.0000
  O   O341      1.0  0.53291  0.62631  0.44306  1.0000
  O   O342      1.0  0.53291  0.66631  0.44306  1.0000
  O   O343      1.0  0.53291  0.70631  0.44306  1.0000
  O   O344      1.0  0.53291  0.74631  0.44306  1.0000
  O   O345      1.0  0.53291  0.78631  0.44306  1.0000
  O   O346      1.0  0.57291  0.62631  0.44306  1.0000
  O   O347      1.0  0.57291  0.66631  0.44306  1.0000
  O   O348      1.0  0.57291  0.70631  0.44306  1.0000
  O   O349      1.0  0.57291  0.74631  0.44306  1.0000
  O   O350      1.0  0.57291  0.78631  0.44306  1.0000
  O   O351      1.0  0.41291  0.82631  0.44306  1.0000
  O   O352      1.0  0.41291  0.86631  0.44306  1.0000
  O   O353      1.0  0.41291  0.90631  0.44306  1.0000
  O   O354      1.0  0.41291  0.94631  0.44306  1.0000
  O   O355      1.0  0.41291  0.98631  0.44306  1.0000
  O   O356      1.0  0.45291  0.82631  0.44306  1.0000
  O   O357      1.0  0.45291  0.86631  0.44306  1.0000
  O   O358      1.0  0.45291  0.90631  0.44306  1.0000
  O   O359      1.0  0.45291  0.94631  0.44306  1.0000
  O   O360      1.0  0.45291  0.98631  0.44306  1.0000
  O   O361      1.0  0.49291  0.82631  0.44306  1.0000
  O   O362      1.0  0.49291  0.86631  0.44306  1.0000
  O   O363      1.0  0.49291  0.90631  0.44306  1.0000
  O   O364      1.0  0.49291  0.94631  0.44306  1.0000
  O   O365      1.0  0.49291  0.98631  0.44306  1.0000
  O   O366      1.0  0.53291  0.82631  0.44306  1.0000
  O   O367      1.0  0.53291  0.86631  0.44306  1.0000
  O   O368      1.0  0.53291  0.90631  0.44306  1.0000
  O   O369      1.0  0.53291  0.94631  0.44306  1.0000
  O   O370      1.0  0.53291  0.98631  0.44306  1.0000
  O   O371      1.0  0.57291  0.82631  0.44306  1.0000
  O   O372      1.0  0.57291  0.86631  0.44306  1.0000
  O   O373      1.0  0.57291  0.90631  0.44306  1.0000
  O   O374      1.0  0.57291  0.94631  0.44306  1.0000
  O   O375      1.0  0.57291  0.98631  0.44306  1.0000
  O   O376      1.0  0.61291  0.02631  0.44306  1.0000
  O   O377      1.0  0.61291  0.06631  0.44306  1.0000
  O   O378      1.0  0.61291  0.10631  0.44306  1.0000
  O   O379      1.0  0.61291  0.14631  0.44306  1.0000
  O   O380      1.0  0.61291  0.18631  0.44306  1.0000
  O   O381      1.0  0.65291  0.02631  0.44306  1.0000
  O   O382      1.0  0.65291  0.06631  0.44306  1.0000
  O   O383      1.0  0.65291  0.10631  0.44306  1.0000
  O   O384      1.0  0.65291  0.14631  0.44306  1.0000
  O   O385      1.0  0.65291  0.18631  0.44306  1.0000
  O   O386      1.0  0.69291  0.02631  0.44306  1.0000
  O   O387      1.0  0.69291  0.06631  0.44306  1.0000
  O   O388      1.0  0.69291  0.10631  0.44306  1.0000
  O   O389      1.0  0.69291  0.14631  0.44306  1.0000
  O   O390      1.0  0.69291  0.18631  0.44306  1.0000
  O   O391      1.0  0.73291  0.02631  0.44306  1.0000
  O   O392      1.0  0.73291  0.06631  0.44306  1.0000
  O   O393      1.0  0.73291  0.10631  0.44306  1.0000
  O   O394      1.0  0.73291  0.14631  0.44306  1.0000
  O   O395      1.0  0.73291  0.18631  0.44306  1.0000
  O   O396      1.0  0.77291  0.02631  0.44306  1.0000
  O   O397      1.0  0.77291  0.06631  0.44306  1.0000
  O   O398      1.0  0.77291  0.10631  0.44306  1.0000
  O   O399      1.0  0.77291  0.14631  0.44306  1.0000
  O   O400      1.0  0.77291  0.18631  0.44306  1.0000
  O   O401      1.0  0.61291  0.22631  0.44306  1.0000
  O   O402      1.0  0.61291  0.26631  0.44306  1.0000
  O   O403      1.0  0.61291  0.30631  0.44306  1.0000
  O   O404      1.0  0.61291  0.34631  0.44306  1.0000
  O   O405      1.0  0.61291  0.38631  0.44306  1.0000
  O   O406      1.0  0.65291  0.22631  0.44306  1.0000
  O   O407      1.0  0.65291  0.26631  0.44306  1.0000
  O   O408      1.0  0.65291  0.30631  0.44306  1.0000
  O   O409      1.0  0.65291  0.34631  0.44306  1.0000
  O   O410      1.0  0.65291  0.38631  0.44306  1.0000
  O   O411      1.0  0.69291  0.22631  0.44306  1.0000
  O   O412      1.0  0.69291  0.26631  0.44306  1.0000
  O   O413      1.0  0.69291  0.30631  0.44306  1.0000
  O   O414      1.0  0.69291  0.34631  0.44306  1.0000
  O   O415      1.0  0.69291  0.38631  0.44306  1.0000
  O   O416      1.0  0.73291  0.22631  0.44306  1.0000
  O   O417      1.0  0.73291  0.26631  0.44306  1.0000
  O   O418      1.0  0.73291  0.30631  0.44306  1.0000
  O   O419      1.0  0.73291  0.34631  0.44306  1.0000
  O   O420      1.0  0.73291  0.38631  0.44306  1.0000
  O   O421      1.0  0.77291  0.22631  0.44306  1.0000
  O   O422      1.0  0.77291  0.26631  0.44306  1.0000
  O   O423      1.0  0.77291  0.30631  0.44306  1.0000
  O   O424      1.0  0.77291  0.34631  0.44306  1.0000
  O   O425      1.0  0.77291  0.38631  0.44306  1.0000
  O   O426      1.0  0.61291  0.42631  0.44306  1.0000
  O   O427      1.0  0.61291  0.46631  0.44306  1.0000
  O   O428      1.0  0.61291  0.50631  0.44306  1.0000
  O   O429      1.0  0.61291  0.54631  0.44306  1.0000
  O   O430      1.0  0.61291  0.58631  0.44306  1.0000
  O   O431      1.0  0.65291  0.42631  0.44306  1.0000
  O   O432      1.0  0.65291  0.46631  0.44306  1.0000
  O   O433      1.0  0.65291  0.50631  0.44306  1.0000
  O   O434      1.0  0.65291  0.54631  0.44306  1.0000
  O   O435      1.0  0.65291  0.58631  0.44306  1.0000
  O   O436      1.0  0.69291  0.42631  0.44306  1.0000
  O   O437      1.0  0.69291  0.46631  0.44306  1.0000
  O   O438      1.0  0.69291  0.50631  0.44306  1.0000
  O   O439      1.0  0.69291  0.54631  0.44306  1.0000
  O   O440      1.0  0.69291  0.58631  0.44306  1.0000
  O   O441      1.0  0.73291  0.42631  0.44306  1.0000
  O   O442      1.0  0.73291  0.46631  0.44306  1.0000
  O   O443      1.0  0.73291  0.50631  0.44306  1.0000
  O   O444      1.0  0.73291  0.54631  0.44306  1.0000
  O   O445      1.0  0.73291  0.58631  0.44306  1.0000
  O   O446      1.0  0.77291  0.42631  0.44306  1.0000
  O   O447      1.0  0.77291  0.46631  0.44306  1.0000
  O   O448      1.0  0.77291  0.50631  0.44306  1.0000
  O   O449      1.0  0.77291  0.54631  0.44306  1.0000
  O   O450      1.0  0.77291  0.58631  0.44306  1.0000
  O   O451      1.0  0.61291  0.62631  0.44306  1.0000
  O   O452      1.0  0.61291  0.66631  0.44306  1.0000
  O   O453      1.0  0.61291  0.70631  0.44306  1.0000
  O   O454      1.0  0.61291  0.74631  0.44306  1.0000
  O   O455      1.0  0.61291  0.78631  0.44306  1.0000
  O   O456      1.0  0.65291  0.62631  0.44306  1.0000
  O   O457      1.0  0.65291  0.66631  0.44306  1.0000
  O   O458      1.0  0.65291  0.70631  0.44306  1.0000
  O   O459      1.0  0.65291  0.74631  0.44306  1.0000
  O   O460      1.0  0.65291  0.78631  0.44306  1.0000
  O   O461      1.0  0.69291  0.62631  0.44306  1.0000
  O   O462      1.0  0.69291  0.66631  0.44306  1.0000
  O   O463      1.0  0.69291  0.70631  0.44306  1.0000
  O   O464      1.0  0.69291  0.74631  0.44306  1.0000
  O   O465      1.0  0.69291  0.78631  0.44306  1.0000
  O   O466      1.0  0.73291  0.62631  0.44306  1.0000
  O   O467      1.0  0.73291  0.66631  0.44306  1.0000
  O   O468      1.0  0.73291  0.70631  0.44306  1.0000
  O   O469      1.0  0.73291  0.74631  0.44306  1.0000
  O   O470      1.0  0.73291  0.78631  0.44306  1.0000
  O   O471      1.0  0.77291  0.62631  0.44306  1.0000
  O   O472      1.0  0.77291  0.66631  0.44306  1.0000
  O   O473      1.0  0.77291  0.70631  0.44306  1.0000
  O   O474      1.0  0.77291  0.74631  0.44306  1.0000
  O   O475      1.0  0.77291  0.78631  0.44306  1.0000
  O   O476      1.0  0.61291  0.82631  0.44306  1.0000
  O   O477      1.0  0.61291  0.86631  0.44306  1.0000
  O   O478      1.0  0.61291  0.90631  0.44306  1.0000
  O   O479      1.0  0.61291  0.94631  0.44306  1.0000
  O   O480      1.0  0.61291  0.98631  0.44306  1.0000
  O   O481      1.0  0.65291  0.82631  0.44306  1.0000
  O   O482      1.0  0.65291  0.86631  0.44306  1.0000
  O   O483      1.0  0.65291  0.90631  0.44306  1.0000
  O   O484      1.0  0.65291  0.94631  0.44306  1.0000
  O   O485      1.0  0.65291  0.98631  0.44306  1.0000
  O   O486      1.0  0.69291  0.82631  0.44306  1.0000
  O   O487      1.0  0.69291  0.86631  0.44306  1.0000
  O   O488      1.0  0.69291  0.90631  0.44306  1.0000
  O   O489      1.0  0.69291  0.94631  0.44306  1.0000
  O   O490      1.0  0.69291  0.98631  0.44306  1.0000
  O   O491      1.0  0.73291  0.82631  0.44306  1.0000
  O   O492      1.0  0.73291  0.86631  0.44306  1.0000
  O   O493      1.0  0.73291  0.90631  0.44306  1.0000
  O   O494      1.0  0.73291  0.94631  0.44306  1.0000
  O   O495      1.0  0.73291  0.98631  0.44306  1.0000
  O   O496      1.0  0.77291  0.82631  0.44306  1.0000
  O   O497      1.0  0.77291  0.86631  0.44306  1.0000
  O   O498      1.0  0.77291  0.90631  0.44306  1.0000
  O   O499      1.0  0.77291  0.94631  0.44306  1.0000
  O   O500      1.0  0.77291  0.98631  0.44306  1.0000
  O   O501      1.0  0.81291  0.02631  0.44306  1.0000
  O   O502      1.0  0.81291  0.06631  0.44306  1.0000
  O   O503      1.0  0.81291  0.10631  0.44306  1.0000
  O   O504      1.0  0.81291  0.14631  0.44306  1.0000
  O   O505      1.0  0.81291  0.18631  0.44306  1.0000
  O   O506      1.0  0.85291  0.02631  0.44306  1.0000
  O   O507      1.0  0.85291  0.06631  0.44306  1.0000
  O   O508      1.0  0.85291  0.10631  0.44306  1.0000
  O   O509      1.0  0.85291  0.14631  0.44306  1.0000
  O   O510      1.0  0.85291  0.18631  0.44306  1.0000
  O   O511      1.0  0.89291  0.02631  0.44306  1.0000
  O   O512      1.0  0.89291  0.06631  0.44306  1.0000
  O   O513      1.0  0.89291  0.10631  0.44306  1.0000
  O   O514      1.0  0.89291  0.14631  0.44306  1.0000
  O   O515      1.0  0.89291  0.18631  0.44306  1.0000
  O   O516      1.0  0.93291  0.02631  0.44306  1.0000
  O   O517      1.0  0.93291  0.06631  0.44306  1.0000
  O   O518      1.0  0.93291  0.10631  0.44306  1.0000
  O   O519      1.0  0.93291  0.14631  0.44306  1.0000
  O   O520      1.0  0.93291  0.18631  0.44306  1.0000
  O   O521      1.0  0.97291  0.02631  0.44306  1.0000
  O   O522      1.0  0.97291  0.06631  0.44306  1.0000
  O   O523      1.0  0.97291  0.10631  0.44306  1.0000
  O   O524      1.0  0.97291  0.14631  0.44306  1.0000
  O   O525      1.0  0.97291  0.18631  0.44306  1.0000
  O   O526      1.0  0.81291  0.22631  0.44306  1.0000
  O   O527      1.0  0.81291  0.26631  0.44306  1.0000
  O   O528      1.0  0.81291  0.30631  0.44306  1.0000
  O   O529      1.0  0.81291  0.34631  0.44306  1.0000
  O   O530      1.0  0.81291  0.38631  0.44306  1.0000
  O   O531      1.0  0.85291  0.22631  0.44306  1.0000
  O   O532      1.0  0.85291  0.26631  0.44306  1.0000
  O   O533      1.0  0.85291  0.30631  0.44306  1.0000
  O   O534      1.0  0.85291  0.34631  0.44306  1.0000
  O   O535      1.0  0.85291  0.38631  0.44306  1.0000
  O   O536      1.0  0.89291  0.22631  0.44306  1.0000
  O   O537      1.0  0.89291  0.26631  0.44306  1.0000
  O   O538      1.0  0.89291  0.30631  0.44306  1.0000
  O   O539      1.0  0.89291  0.34631  0.44306  1.0000
  O   O540      1.0  0.89291  0.38631  0.44306  1.0000
  O   O541      1.0  0.93291  0.22631  0.44306  1.0000
  O   O542      1.0  0.93291  0.26631  0.44306  1.0000
  O   O543      1.0  0.93291  0.30631  0.44306  1.0000
  O   O544      1.0  0.93291  0.34631  0.44306  1.0000
  O   O545      1.0  0.93291  0.38631  0.44306  1.0000
  O   O546      1.0  0.97291  0.22631  0.44306  1.0000
  O   O547      1.0  0.97291  0.26631  0.44306  1.0000
  O   O548      1.0  0.97291  0.30631  0.44306  1.0000
  O   O549      1.0  0.97291  0.34631  0.44306  1.0000
  O   O550      1.0  0.97291  0.38631  0.44306  1.0000
  O   O551      1.0  0.81291  0.42631  0.44306  1.0000
  O   O552      1.0  0.81291  0.46631  0.44306  1.0000
  O   O553      1.0  0.81291  0.50631  0.44306  1.0000
  O   O554      1.0  0.81291  0.54631  0.44306  1.0000
  O   O555      1.0  0.81291  0.58631  0.44306  1.0000
  O   O556      1.0  0.85291  0.42631  0.44306  1.0000
  O   O557      1.0  0.85291  0.46631  0.44306  1.0000
  O   O558      1.0  0.85291  0.50631  0.44306  1.0000
  O   O559      1.0  0.85291  0.54631  0.44306  1.0000
  O   O560      1.0  0.85291  0.58631  0.44306  1.0000
  O   O561      1.0  0.89291  0.42631  0.44306  1.0000
  O   O562      1.0  0.89291  0.46631  0.44306  1.0000
  O   O563      1.0  0.89291  0.50631  0.44306  1.0000
  O   O564      1.0  0.89291  0.54631  0.44306  1.0000
  O   O565      1.0  0.89291  0.58631  0.44306  1.0000
  O   O566      1.0  0.93291  0.42631  0.44306  1.0000
  O   O567      1.0  0.93291  0.46631  0.44306  1.0000
  O   O568      1.0  0.93291  0.50631  0.44306  1.0000
  O   O569      1.0  0.93291  0.54631  0.44306  1.0000
  O   O570      1.0  0.93291  0.58631  0.44306  1.0000
  O   O571      1.0  0.97291  0.42631  0.44306  1.0000
  O   O572      1.0  0.97291  0.46631  0.44306  1.0000
  O   O573      1.0  0.97291  0.50631  0.44306  1.0000
  O   O574      1.0  0.97291  0.54631  0.44306  1.0000
  O   O575      1.0  0.97291  0.58631  0.44306  1.0000
  O   O576      1.0  0.81291  0.62631  0.44306  1.0000
  O   O577      1.0  0.81291  0.66631  0.44306  1.0000
  O   O578      1.0  0.81291  0.70631  0.44306  1.0000
  O   O579      1.0  0.81291  0.74631  0.44306  1.0000
  O   O580      1.0  0.81291  0.78631  0.44306  1.0000
  O   O581      1.0  0.85291  0.62631  0.44306  1.0000
  O   O582      1.0  0.85291  0.66631  0.44306  1.0000
  O   O583      1.0  0.85291  0.70631  0.44306  1.0000
  O   O584      1.0  0.85291  0.74631  0.44306  1.0000
  O   O585      1.0  0.85291  0.78631  0.44306  1.0000
  O   O586      1.0  0.89291  0.62631  0.44306  1.0000
  O   O587      1.0  0.89291  0.66631  0.44306  1.0000
  O   O588      1.0  0.89291  0.70631  0.44306  1.0000
  O   O589      1.0  0.89291  0.74631  0.44306  1.0000
  O   O590      1.0  0.89291  0.78631  0.44306  1.0000
  O   O591      1.0  0.93291  0.62631  0.44306  1.0000
  O   O592      1.0  0.93291  0.66631  0.44306  1.0000
  O   O593      1.0  0.93291  0.70631  0.44306  1.0000
  O   O594      1.0  0.93291  0.74631  0.44306  1.0000
  O   O595      1.0  0.93291  0.78631  0.44306  1.0000
  O   O596      1.0  0.97291  0.62631  0.44306  1.0000
  O   O597      1.0  0.97291  0.66631  0.44306  1.0000
  O   O598      1.0  0.97291  0.70631  0.44306  1.0000
  O   O599      1.0  0.97291  0.74631  0.44306  1.0000
  O   O600      1.0  0.97291  0.78631  0.44306  1.0000
  O   O601      1.0  0.81291  0.82631  0.44306  1.0000
  O   O602      1.0  0.81291  0.86631  0.44306  1.0000
  O   O603      1.0  0.81291  0.90631  0.44306  1.0000
  O   O604      1.0  0.81291  0.94631  0.44306  1.0000
  O   O605      1.0  0.81291  0.98631  0.44306  1.0000
  O   O606      1.0  0.85291  0.82631  0.44306  1.0000
  O   O607      1.0  0.85291  0.86631  0.44306  1.0000
  O   O608      1.0  0.85291  0.90631  0.44306  1.0000
  O   O609      1.0  0.85291  0.94631  0.44306  1.0000
  O   O610      1.0  0.85291  0.98631  0.44306  1.0000
  O   O611      1.0  0.89291  0.82631  0.44306  1.0000
  O   O612      1.0  0.89291  0.86631  0.44306  1.0000
  O   O613      1.0  0.89291  0.90631  0.44306  1.0000
  O   O614      1.0  0.89291  0.94631  0.44306  1.0000
  O   O615      1.0  0.89291  0.98631  0.44306  1.0000
  O   O616      1.0  0.93291  0.82631  0.44306  1.0000
  O   O617      1.0  0.93291  0.86631  0.44306  1.0000
  O   O618      1.0  0.93291  0.90631  0.44306  1.0000
  O   O619      1.0  0.93291  0.94631  0.44306  1.0000
  O   O620      1.0  0.93291  0.98631  0.44306  1.0000
  O   O621      1.0  0.97291  0.82631  0.44306  1.0000
  O   O622      1.0  0.97291  0.86631  0.44306  1.0000
  O   O623      1.0  0.97291  0.90631  0.44306  1.0000
  O   O624      1.0  0.97291  0.94631  0.44306  1.0000
  O   O625      1.0  0.97291  0.98631  0.44306  1.0000
  Pd  Pd1       1.0  0.01291  0.02631  0.45555  1.0000
  Pd  Pd2       1.0  0.05090  0.14029  0.45555  1.0000
  Pd  Pd3       1.0  0.08890  0.25427  0.45555  1.0000
  Pd  Pd4       1.0  0.12689  0.36826  0.45555  1.0000
  Pd  Pd5       1.0  0.16489  0.48224  0.45555  1.0000
  Pd  Pd6       1.0  0.20288  0.59622  0.45555  1.0000
  Pd  Pd7       1.0  0.24087  0.71020  0.45555  1.0000
  Pd  Pd8       1.0  0.27887  0.82419  0.45555  1.0000
  Pd  Pd9       1.0  0.31686  0.93817  0.45555  1.0000
  Pd  Pd10      1.0  0.35486  0.05215  0.45555  1.0000
  Pd  Pd11      1.0  0.39285  0.16613  0.45555  1.0000
  Pd  Pd12      1.0  0.43085  0.28012  0.45555  1.0000
  Pd  Pd13      1.0  0.46884  0.39410  0.45555  1.0000
  Pd  Pd14      1.0  0.50683  0.50808  0.45555  1.0000
  Pd  Pd15      1.0  0.54483  0.62206  0.45555  1.0000
  Pd  Pd16      1.0  0.58282  0.73605  0.45555  1.0000
  Pd  Pd17      1.0  0.62082  0.85003  0.45555  1.0000
  Pd  Pd18      1.0  0.65881  0.96401  0.45555  1.0000
  Pd  Pd19      1.0  0.69680  0.07799  0.45555  1.0000
  Pd  Pd20      1.0  0.73480  0.19198  0.45555  1.0000
  Pd  Pd21      1.0  0.77279  0.30596  0.45555  1.0000
  Pd  Pd22      1.0  0.81079  0.41994  0.45555  1.0000
  Pd  Pd23      1.0  0.84878  0.53392  0.45555  1.0000
  Pd  Pd24      1.0  0.88678  0.64791  0.45555  1.0000
  Pd  Pd25      1.0  0.92477  0.76189  0.45555  1.0000
  Pd  Pd26      1.0  0.01291  0.02631  0.45555  1.0000
  Pd  Pd27      1.0  0.01291  0.02631  0.45555  1.0000
  Pd  Pd28      1.0  0.01291  0.02631  0.45555  1.0000
