data_image0
_chemical_formula_structural       O16
_chemical_formula_sum              "O16"
_cell_length_a       14.2126
_cell_length_b       14.2126
_cell_length_c       39.3476
_cell_angle_alpha    90
_cell_angle_beta     90
_cell_angle_gamma    60

_space_group_name_H-M_alt    "P 1"
_space_group_IT_number       1

loop_
  _space_group_symop_operation_xyz
  'x, y, z'

loop_
  _atom_site_type_symbol
  _atom_site_label
  _atom_site_symmetry_multiplicity
  _atom_site_fract_x
  _atom_site_fract_y
  _atom_site_fract_z
  _atom_site_occupancy
  O   O1        1.0  0.49123  0.43860  0.64000  1.0000
  O   O2        1.0  0.59649  0.17544  0.64000  1.0000
  O   O3        1.0  0.75439  0.28070  0.64000  1.0000
  O   O4        1.0  0.33333  0.33333  0.64000  1.0000
  O   O5        1.0  0.64912  0.54386  0.64000  1.0000
  O   O6        1.0  0.22807  0.59649  0.64000  1.0000
  O   O7        1.0  0.38596  0.70175  0.64000  1.0000
  O   O8        1.0  0.91228  0.38596  0.64000  1.0000
  O   O9        1.0  0.01754  0.12281  0.64000  1.0000
  O   O10       1.0  0.17544  0.22807  0.64000  1.0000
  O   O11       1.0  0.80702  0.64912  0.64000  1.0000
  O   O12       1.0  0.96491  0.75439  0.64000  1.0000
  O   O13       1.0  0.07018  0.49123  0.64000  1.0000
  O   O14       1.0  0.54386  0.80702  0.64000  1.0000
  O   O15       1.0  0.70175  0.91228  0.64000  1.0000
  O   O16       1.0  0.43860  0.07018  0.64000  1.0000
