data_image0
_cell_length_a       14.2126
_cell_length_b       14.2126
_cell_length_c       39.3476
_cell_angle_alpha    90
_cell_angle_beta     90
_cell_angle_gamma    60

_symmetry_space_group_name_H-M    "P 1"
_symmetry_int_tables_number       1

loop_
  _symmetry_equiv_pos_as_xyz
  'x, y, z'

loop_
  _atom_site_label
  _atom_site_occupancy
  _atom_site_fract_x
  _atom_site_fract_y
  _atom_site_fract_z
  _atom_site_thermal_displace_type
  _atom_site_B_iso_or_equiv
  _atom_site_type_symbol
  O1       1.0000 0.49123  0.43860  0.64000  Biso   1.000  O 
  O2       1.0000 0.59649  0.17544  0.64000  Biso   1.000  O 
  O3       1.0000 0.75439  0.28070  0.64000  Biso   1.000  O 
  O4       1.0000 0.33333  0.33333  0.64000  Biso   1.000  O 
  O5       1.0000 0.64912  0.54386  0.64000  Biso   1.000  O 
  O6       1.0000 0.22807  0.59649  0.64000  Biso   1.000  O 
  O7       1.0000 0.38596  0.70175  0.64000  Biso   1.000  O 
  O8       1.0000 0.91228  0.38596  0.64000  Biso   1.000  O 
  O9       1.0000 0.01754  0.12281  0.64000  Biso   1.000  O 
  O10      1.0000 0.17544  0.22807  0.64000  Biso   1.000  O 
  O11      1.0000 0.80702  0.64912  0.64000  Biso   1.000  O 
  O12      1.0000 0.96491  0.75439  0.64000  Biso   1.000  O 
  O13      1.0000 0.07018  0.49123  0.64000  Biso   1.000  O 
  O14      1.0000 0.54386  0.80702  0.64000  Biso   1.000  O 
  O15      1.0000 0.70175  0.91228  0.64000  Biso   1.000  O 
  O16      1.0000 0.43860  0.07018  0.64000  Biso   1.000  O 
