data_image0
_chemical_formula_structural       Pd27O19
_chemical_formula_sum              "Pd27 O19"
_cell_length_a       14.2126
_cell_length_b       14.2126
_cell_length_c       39.3476
_cell_angle_alpha    90
_cell_angle_beta     90
_cell_angle_gamma    60

_space_group_name_H-M_alt    "P 1"
_space_group_IT_number       1

loop_
  _space_group_symop_operation_xyz
  'x, y, z'

loop_
  _atom_site_type_symbol
  _atom_site_label
  _atom_site_symmetry_multiplicity
  _atom_site_fract_x
  _atom_site_fract_y
  _atom_site_fract_z
  _atom_site_occupancy
  Pd  Pd1       1.0  0.33333  0.66667  0.69082  1.0000
  Pd  Pd2       1.0  0.44444  0.77778  0.69082  1.0000
  Pd  Pd3       1.0  0.55556  0.88889  0.69082  1.0000
  Pd  Pd4       1.0  0.33333  0.33333  0.69082  1.0000
  Pd  Pd5       1.0  0.44444  0.44444  0.69082  1.0000
  Pd  Pd6       1.0  0.55556  0.55556  0.69082  1.0000
  Pd  Pd7       1.0  0.66667  0.66667  0.69082  1.0000
  Pd  Pd8       1.0  0.77778  0.77778  0.69082  1.0000
  Pd  Pd9       1.0  0.88889  0.88889  0.69082  1.0000
  Pd  Pd10      1.0  0.33333  0.00000  0.69082  1.0000
  Pd  Pd11      1.0  0.44444  0.11111  0.69082  1.0000
  Pd  Pd12      1.0  0.55556  0.22222  0.69082  1.0000
  Pd  Pd13      1.0  0.66667  0.33333  0.69082  1.0000
  Pd  Pd14      1.0  0.77778  0.44444  0.69082  1.0000
  Pd  Pd15      1.0  0.88889  0.55556  0.69082  1.0000
  Pd  Pd16      1.0  0.00000  0.66667  0.69082  1.0000
  Pd  Pd17      1.0  0.11111  0.77778  0.69082  1.0000
  Pd  Pd18      1.0  0.22222  0.88889  0.69082  1.0000
  Pd  Pd19      1.0  0.66667  0.00000  0.69082  1.0000
  Pd  Pd20      1.0  0.77778  0.11111  0.69082  1.0000
  Pd  Pd21      1.0  0.88889  0.22222  0.69082  1.0000
  Pd  Pd22      1.0  0.00000  0.33333  0.69082  1.0000
  Pd  Pd23      1.0  0.11111  0.44444  0.69082  1.0000
  Pd  Pd24      1.0  0.22222  0.55556  0.69082  1.0000
  Pd  Pd25      1.0  0.00000  0.00000  0.69082  1.0000
  Pd  Pd26      1.0  0.11111  0.11111  0.69082  1.0000
  Pd  Pd27      1.0  0.22222  0.22222  0.69082  1.0000
  O   O1        1.0  0.59649  0.17544  0.64000  1.0000
  O   O2        1.0  0.75439  0.28070  0.64000  1.0000
  O   O3        1.0  0.91228  0.38596  0.64000  1.0000
  O   O4        1.0  0.01754  0.12281  0.64000  1.0000
  O   O5        1.0  0.17544  0.22807  0.64000  1.0000
  O   O6        1.0  0.33333  0.33333  0.64000  1.0000
  O   O7        1.0  0.49123  0.43860  0.64000  1.0000
  O   O8        1.0  0.64912  0.54386  0.64000  1.0000
  O   O9        1.0  0.80702  0.64912  0.64000  1.0000
  O   O10       1.0  0.96491  0.75439  0.64000  1.0000
  O   O11       1.0  0.07018  0.49123  0.64000  1.0000
  O   O12       1.0  0.22807  0.59649  0.64000  1.0000
  O   O13       1.0  0.38596  0.70175  0.64000  1.0000
  O   O14       1.0  0.54386  0.80702  0.64000  1.0000
  O   O15       1.0  0.70175  0.91228  0.64000  1.0000
  O   O16       1.0  0.85965  0.01754  0.64000  1.0000
  O   O17       1.0  0.12281  0.85965  0.64000  1.0000
  O   O18       1.0  0.28070  0.96491  0.64000  1.0000
  O   O19       1.0  0.43860  0.07018  0.64000  1.0000
