data_image0
_chemical_formula_structural       Zn25O25Zn25O25Zn25O25Zn25O25Zn25O25Zn25O25
_chemical_formula_sum              "Zn150 O150"
_cell_length_a       16.3281
_cell_length_b       16.3255
_cell_length_c       120.116
_cell_angle_alpha    90
_cell_angle_beta     90
_cell_angle_gamma    119.996

_space_group_name_H-M_alt    "P 1"
_space_group_IT_number       1

loop_
  _space_group_symop_operation_xyz
  'x, y, z'

loop_
  _atom_site_type_symbol
  _atom_site_label
  _atom_site_symmetry_multiplicity
  _atom_site_fract_x
  _atom_site_fract_y
  _atom_site_fract_z
  _atom_site_occupancy
  Zn  Zn1       1.0  0.13127  0.06495  0.43737  1.0000
  Zn  Zn2       1.0  0.13127  0.26495  0.43737  1.0000
  Zn  Zn3       1.0  0.13127  0.46495  0.43737  1.0000
  Zn  Zn4       1.0  0.13127  0.66495  0.43737  1.0000
  Zn  Zn5       1.0  0.13127  0.86495  0.43737  1.0000
  Zn  Zn6       1.0  0.33127  0.06495  0.43737  1.0000
  Zn  Zn7       1.0  0.33127  0.26495  0.43737  1.0000
  Zn  Zn8       1.0  0.33127  0.46495  0.43737  1.0000
  Zn  Zn9       1.0  0.33127  0.66495  0.43737  1.0000
  Zn  Zn10      1.0  0.33127  0.86495  0.43737  1.0000
  Zn  Zn11      1.0  0.53127  0.06495  0.43737  1.0000
  Zn  Zn12      1.0  0.53127  0.26495  0.43737  1.0000
  Zn  Zn13      1.0  0.53127  0.46495  0.43737  1.0000
  Zn  Zn14      1.0  0.53127  0.66495  0.43737  1.0000
  Zn  Zn15      1.0  0.53127  0.86495  0.43737  1.0000
  Zn  Zn16      1.0  0.73127  0.06495  0.43737  1.0000
  Zn  Zn17      1.0  0.73127  0.26495  0.43737  1.0000
  Zn  Zn18      1.0  0.73127  0.46495  0.43737  1.0000
  Zn  Zn19      1.0  0.73127  0.66495  0.43737  1.0000
  Zn  Zn20      1.0  0.73127  0.86495  0.43737  1.0000
  Zn  Zn21      1.0  0.93127  0.06495  0.43737  1.0000
  Zn  Zn22      1.0  0.93127  0.26495  0.43737  1.0000
  Zn  Zn23      1.0  0.93127  0.46495  0.43737  1.0000
  Zn  Zn24      1.0  0.93127  0.66495  0.43737  1.0000
  Zn  Zn25      1.0  0.93127  0.86495  0.43737  1.0000
  O   O1        1.0  0.53114  0.46476  0.45393  1.0000
  O   O2        1.0  0.33114  0.26476  0.45393  1.0000
  O   O3        1.0  0.53114  0.66476  0.45393  1.0000
  O   O4        1.0  0.13114  0.66476  0.45393  1.0000
  O   O5        1.0  0.53114  0.86476  0.45393  1.0000
  O   O6        1.0  0.33114  0.46476  0.45393  1.0000
  O   O7        1.0  0.73114  0.06476  0.45393  1.0000
  O   O8        1.0  0.13114  0.06476  0.45393  1.0000
  O   O9        1.0  0.73114  0.26476  0.45393  1.0000
  O   O10       1.0  0.33114  0.66476  0.45393  1.0000
  O   O11       1.0  0.73114  0.46476  0.45393  1.0000
  O   O12       1.0  0.13114  0.86476  0.45393  1.0000
  O   O13       1.0  0.73114  0.66476  0.45393  1.0000
  O   O14       1.0  0.33114  0.86476  0.45393  1.0000
  O   O15       1.0  0.73114  0.86476  0.45393  1.0000
  O   O16       1.0  0.13114  0.46476  0.45393  1.0000
  O   O17       1.0  0.93114  0.06476  0.45393  1.0000
  O   O18       1.0  0.53114  0.06476  0.45393  1.0000
  O   O19       1.0  0.93114  0.26476  0.45393  1.0000
  O   O20       1.0  0.33114  0.06476  0.45393  1.0000
  O   O21       1.0  0.93114  0.46476  0.45393  1.0000
  O   O22       1.0  0.53114  0.26476  0.45393  1.0000
  O   O23       1.0  0.93114  0.66476  0.45393  1.0000
  O   O24       1.0  0.13114  0.26476  0.45393  1.0000
  O   O25       1.0  0.93114  0.86476  0.45393  1.0000
  Zn  Zn26      1.0  0.66448  0.33145  0.45911  1.0000
  Zn  Zn27      1.0  0.26448  0.53145  0.45911  1.0000
  Zn  Zn28      1.0  0.46448  0.33145  0.45911  1.0000
  Zn  Zn29      1.0  0.66448  0.53145  0.45911  1.0000
  Zn  Zn30      1.0  0.06448  0.73145  0.45911  1.0000
  Zn  Zn31      1.0  0.26448  0.13145  0.45911  1.0000
  Zn  Zn32      1.0  0.66448  0.73145  0.45911  1.0000
  Zn  Zn33      1.0  0.46448  0.53145  0.45911  1.0000
  Zn  Zn34      1.0  0.26448  0.73145  0.45911  1.0000
  Zn  Zn35      1.0  0.66448  0.93145  0.45911  1.0000
  Zn  Zn36      1.0  0.06448  0.53145  0.45911  1.0000
  Zn  Zn37      1.0  0.46448  0.73145  0.45911  1.0000
  Zn  Zn38      1.0  0.86448  0.13145  0.45911  1.0000
  Zn  Zn39      1.0  0.06448  0.13145  0.45911  1.0000
  Zn  Zn40      1.0  0.26448  0.93145  0.45911  1.0000
  Zn  Zn41      1.0  0.86448  0.33145  0.45911  1.0000
  Zn  Zn42      1.0  0.46448  0.93145  0.45911  1.0000
  Zn  Zn43      1.0  0.26448  0.33145  0.45911  1.0000
  Zn  Zn44      1.0  0.86448  0.53145  0.45911  1.0000
  Zn  Zn45      1.0  0.06448  0.93145  0.45911  1.0000
  Zn  Zn46      1.0  0.66448  0.13145  0.45911  1.0000
  Zn  Zn47      1.0  0.86448  0.73145  0.45911  1.0000
  Zn  Zn48      1.0  0.46448  0.13145  0.45911  1.0000
  Zn  Zn49      1.0  0.06448  0.33145  0.45911  1.0000
  Zn  Zn50      1.0  0.86448  0.93145  0.45911  1.0000
  O   O26       1.0  0.66440  0.73143  0.47567  1.0000
  O   O27       1.0  0.46440  0.13143  0.47567  1.0000
  O   O28       1.0  0.06440  0.93143  0.47567  1.0000
  O   O29       1.0  0.46440  0.93143  0.47567  1.0000
  O   O30       1.0  0.66440  0.93143  0.47567  1.0000
  O   O31       1.0  0.06440  0.73143  0.47567  1.0000
  O   O32       1.0  0.26440  0.73143  0.47567  1.0000
  O   O33       1.0  0.46440  0.33143  0.47567  1.0000
  O   O34       1.0  0.86440  0.13143  0.47567  1.0000
  O   O35       1.0  0.66440  0.13143  0.47567  1.0000
  O   O36       1.0  0.26440  0.33143  0.47567  1.0000
  O   O37       1.0  0.06440  0.33143  0.47567  1.0000
  O   O38       1.0  0.86440  0.33143  0.47567  1.0000
  O   O39       1.0  0.06440  0.13143  0.47567  1.0000
  O   O40       1.0  0.66440  0.33143  0.47567  1.0000
  O   O41       1.0  0.46440  0.53143  0.47567  1.0000
  O   O42       1.0  0.86440  0.53143  0.47567  1.0000
  O   O43       1.0  0.26440  0.93143  0.47567  1.0000
  O   O44       1.0  0.26440  0.13143  0.47567  1.0000
  O   O45       1.0  0.66440  0.53143  0.47567  1.0000
  O   O46       1.0  0.86440  0.73143  0.47567  1.0000
  O   O47       1.0  0.26440  0.53143  0.47567  1.0000
  O   O48       1.0  0.46440  0.73143  0.47567  1.0000
  O   O49       1.0  0.06440  0.53143  0.47567  1.0000
  O   O50       1.0  0.86440  0.93143  0.47567  1.0000
  Zn  Zn51      1.0  0.53107  0.46479  0.48085  1.0000
  Zn  Zn52      1.0  0.33107  0.26479  0.48085  1.0000
  Zn  Zn53      1.0  0.13107  0.66479  0.48085  1.0000
  Zn  Zn54      1.0  0.53107  0.06479  0.48085  1.0000
  Zn  Zn55      1.0  0.93107  0.06479  0.48085  1.0000
  Zn  Zn56      1.0  0.73107  0.26479  0.48085  1.0000
  Zn  Zn57      1.0  0.33107  0.66479  0.48085  1.0000
  Zn  Zn58      1.0  0.53107  0.66479  0.48085  1.0000
  Zn  Zn59      1.0  0.33107  0.06479  0.48085  1.0000
  Zn  Zn60      1.0  0.93107  0.26479  0.48085  1.0000
  Zn  Zn61      1.0  0.13107  0.86479  0.48085  1.0000
  Zn  Zn62      1.0  0.73107  0.46479  0.48085  1.0000
  Zn  Zn63      1.0  0.13107  0.26479  0.48085  1.0000
  Zn  Zn64      1.0  0.53107  0.26479  0.48085  1.0000
  Zn  Zn65      1.0  0.93107  0.46479  0.48085  1.0000
  Zn  Zn66      1.0  0.53107  0.86479  0.48085  1.0000
  Zn  Zn67      1.0  0.33107  0.46479  0.48085  1.0000
  Zn  Zn68      1.0  0.73107  0.66479  0.48085  1.0000
  Zn  Zn69      1.0  0.33107  0.86479  0.48085  1.0000
  Zn  Zn70      1.0  0.93107  0.66479  0.48085  1.0000
  Zn  Zn71      1.0  0.13107  0.46479  0.48085  1.0000
  Zn  Zn72      1.0  0.13107  0.06479  0.48085  1.0000
  Zn  Zn73      1.0  0.73107  0.06479  0.48085  1.0000
  Zn  Zn74      1.0  0.73107  0.86479  0.48085  1.0000
  Zn  Zn75      1.0  0.93107  0.86479  0.48085  1.0000
  O   O51       1.0  0.93094  0.06460  0.49741  1.0000
  O   O52       1.0  0.13094  0.06460  0.49741  1.0000
  O   O53       1.0  0.53094  0.86460  0.49741  1.0000
  O   O54       1.0  0.73094  0.46460  0.49741  1.0000
  O   O55       1.0  0.33094  0.66460  0.49741  1.0000
  O   O56       1.0  0.13094  0.66460  0.49741  1.0000
  O   O57       1.0  0.93094  0.26460  0.49741  1.0000
  O   O58       1.0  0.53094  0.46460  0.49741  1.0000
  O   O59       1.0  0.53094  0.06460  0.49741  1.0000
  O   O60       1.0  0.13094  0.46460  0.49741  1.0000
  O   O61       1.0  0.73094  0.66460  0.49741  1.0000
  O   O62       1.0  0.73094  0.06460  0.49741  1.0000
  O   O63       1.0  0.93094  0.46460  0.49741  1.0000
  O   O64       1.0  0.33094  0.46460  0.49741  1.0000
  O   O65       1.0  0.13094  0.86460  0.49741  1.0000
  O   O66       1.0  0.33094  0.26460  0.49741  1.0000
  O   O67       1.0  0.53094  0.66460  0.49741  1.0000
  O   O68       1.0  0.73094  0.86460  0.49741  1.0000
  O   O69       1.0  0.93094  0.66460  0.49741  1.0000
  O   O70       1.0  0.33094  0.86460  0.49741  1.0000
  O   O71       1.0  0.73094  0.26460  0.49741  1.0000
  O   O72       1.0  0.53094  0.26460  0.49741  1.0000
  O   O73       1.0  0.33094  0.06460  0.49741  1.0000
  O   O74       1.0  0.13094  0.26460  0.49741  1.0000
  O   O75       1.0  0.93094  0.86460  0.49741  1.0000
  Zn  Zn76      1.0  0.66428  0.13129  0.50259  1.0000
  Zn  Zn77      1.0  0.46428  0.33129  0.50259  1.0000
  Zn  Zn78      1.0  0.46428  0.73129  0.50259  1.0000
  Zn  Zn79      1.0  0.86428  0.33129  0.50259  1.0000
  Zn  Zn80      1.0  0.66428  0.73129  0.50259  1.0000
  Zn  Zn81      1.0  0.26428  0.73129  0.50259  1.0000
  Zn  Zn82      1.0  0.26428  0.13129  0.50259  1.0000
  Zn  Zn83      1.0  0.26428  0.53129  0.50259  1.0000
  Zn  Zn84      1.0  0.26428  0.33129  0.50259  1.0000
  Zn  Zn85      1.0  0.66428  0.33129  0.50259  1.0000
  Zn  Zn86      1.0  0.86428  0.53129  0.50259  1.0000
  Zn  Zn87      1.0  0.46428  0.13129  0.50259  1.0000
  Zn  Zn88      1.0  0.66428  0.93129  0.50259  1.0000
  Zn  Zn89      1.0  0.06428  0.73129  0.50259  1.0000
  Zn  Zn90      1.0  0.46428  0.93129  0.50259  1.0000
  Zn  Zn91      1.0  0.46428  0.53129  0.50259  1.0000
  Zn  Zn92      1.0  0.06428  0.13129  0.50259  1.0000
  Zn  Zn93      1.0  0.86428  0.73129  0.50259  1.0000
  Zn  Zn94      1.0  0.06428  0.33129  0.50259  1.0000
  Zn  Zn95      1.0  0.66428  0.53129  0.50259  1.0000
  Zn  Zn96      1.0  0.86428  0.13129  0.50259  1.0000
  Zn  Zn97      1.0  0.26428  0.93129  0.50259  1.0000
  Zn  Zn98      1.0  0.06428  0.93129  0.50259  1.0000
  Zn  Zn99      1.0  0.06428  0.53129  0.50259  1.0000
  Zn  Zn100     1.0  0.86428  0.93129  0.50259  1.0000
  O   O76       1.0  0.86421  0.33127  0.51915  1.0000
  O   O77       1.0  0.66421  0.33127  0.51915  1.0000
  O   O78       1.0  0.46421  0.93127  0.51915  1.0000
  O   O79       1.0  0.26421  0.73127  0.51915  1.0000
  O   O80       1.0  0.26421  0.53127  0.51915  1.0000
  O   O81       1.0  0.06421  0.33127  0.51915  1.0000
  O   O82       1.0  0.66421  0.93127  0.51915  1.0000
  O   O83       1.0  0.46421  0.33127  0.51915  1.0000
  O   O84       1.0  0.86421  0.53127  0.51915  1.0000
  O   O85       1.0  0.06421  0.93127  0.51915  1.0000
  O   O86       1.0  0.06421  0.73127  0.51915  1.0000
  O   O87       1.0  0.66421  0.53127  0.51915  1.0000
  O   O88       1.0  0.46421  0.73127  0.51915  1.0000
  O   O89       1.0  0.66421  0.13127  0.51915  1.0000
  O   O90       1.0  0.06421  0.13127  0.51915  1.0000
  O   O91       1.0  0.86421  0.13127  0.51915  1.0000
  O   O92       1.0  0.86421  0.73127  0.51915  1.0000
  O   O93       1.0  0.46421  0.13127  0.51915  1.0000
  O   O94       1.0  0.26421  0.13127  0.51915  1.0000
  O   O95       1.0  0.06421  0.53127  0.51915  1.0000
  O   O96       1.0  0.26421  0.93127  0.51915  1.0000
  O   O97       1.0  0.66421  0.73127  0.51915  1.0000
  O   O98       1.0  0.46421  0.53127  0.51915  1.0000
  O   O99       1.0  0.26421  0.33127  0.51915  1.0000
  O   O100      1.0  0.86421  0.93127  0.51915  1.0000
  Zn  Zn101     1.0  0.33087  0.66463  0.52433  1.0000
  Zn  Zn102     1.0  0.73087  0.86463  0.52433  1.0000
  Zn  Zn103     1.0  0.73087  0.06463  0.52433  1.0000
  Zn  Zn104     1.0  0.73087  0.46463  0.52433  1.0000
  Zn  Zn105     1.0  0.13087  0.06463  0.52433  1.0000
  Zn  Zn106     1.0  0.13087  0.26463  0.52433  1.0000
  Zn  Zn107     1.0  0.93087  0.46463  0.52433  1.0000
  Zn  Zn108     1.0  0.53087  0.46463  0.52433  1.0000
  Zn  Zn109     1.0  0.33087  0.06463  0.52433  1.0000
  Zn  Zn110     1.0  0.13087  0.66463  0.52433  1.0000
  Zn  Zn111     1.0  0.13087  0.86463  0.52433  1.0000
  Zn  Zn112     1.0  0.93087  0.06463  0.52433  1.0000
  Zn  Zn113     1.0  0.53087  0.86463  0.52433  1.0000
  Zn  Zn114     1.0  0.53087  0.26463  0.52433  1.0000
  Zn  Zn115     1.0  0.73087  0.66463  0.52433  1.0000
  Zn  Zn116     1.0  0.93087  0.66463  0.52433  1.0000
  Zn  Zn117     1.0  0.73087  0.26463  0.52433  1.0000
  Zn  Zn118     1.0  0.33087  0.26463  0.52433  1.0000
  Zn  Zn119     1.0  0.13087  0.46463  0.52433  1.0000
  Zn  Zn120     1.0  0.53087  0.06463  0.52433  1.0000
  Zn  Zn121     1.0  0.33087  0.46463  0.52433  1.0000
  Zn  Zn122     1.0  0.93087  0.26463  0.52433  1.0000
  Zn  Zn123     1.0  0.53087  0.66463  0.52433  1.0000
  Zn  Zn124     1.0  0.33087  0.86463  0.52433  1.0000
  Zn  Zn125     1.0  0.93087  0.86463  0.52433  1.0000
  O   O101      1.0  0.53075  0.86444  0.54089  1.0000
  O   O102      1.0  0.33075  0.86444  0.54089  1.0000
  O   O103      1.0  0.13075  0.86444  0.54089  1.0000
  O   O104      1.0  0.13075  0.06444  0.54089  1.0000
  O   O105      1.0  0.93075  0.46444  0.54089  1.0000
  O   O106      1.0  0.73075  0.26444  0.54089  1.0000
  O   O107      1.0  0.13075  0.46444  0.54089  1.0000
  O   O108      1.0  0.93075  0.06444  0.54089  1.0000
  O   O109      1.0  0.73075  0.66444  0.54089  1.0000
  O   O110      1.0  0.53075  0.66444  0.54089  1.0000
  O   O111      1.0  0.33075  0.26444  0.54089  1.0000
  O   O112      1.0  0.13075  0.66444  0.54089  1.0000
  O   O113      1.0  0.13075  0.26444  0.54089  1.0000
  O   O114      1.0  0.53075  0.46444  0.54089  1.0000
  O   O115      1.0  0.93075  0.66444  0.54089  1.0000
  O   O116      1.0  0.73075  0.06444  0.54089  1.0000
  O   O117      1.0  0.33075  0.46444  0.54089  1.0000
  O   O118      1.0  0.33075  0.06444  0.54089  1.0000
  O   O119      1.0  0.93075  0.26444  0.54089  1.0000
  O   O120      1.0  0.73075  0.46444  0.54089  1.0000
  O   O121      1.0  0.73075  0.86444  0.54089  1.0000
  O   O122      1.0  0.53075  0.26444  0.54089  1.0000
  O   O123      1.0  0.33075  0.66444  0.54089  1.0000
  O   O124      1.0  0.53075  0.06444  0.54089  1.0000
  O   O125      1.0  0.93075  0.86444  0.54089  1.0000
  Zn  Zn126     1.0  0.66408  0.73113  0.54607  1.0000
  Zn  Zn127     1.0  0.46408  0.33113  0.54607  1.0000
  Zn  Zn128     1.0  0.86408  0.53113  0.54607  1.0000
  Zn  Zn129     1.0  0.86408  0.13113  0.54607  1.0000
  Zn  Zn130     1.0  0.46408  0.13113  0.54607  1.0000
  Zn  Zn131     1.0  0.66408  0.13113  0.54607  1.0000
  Zn  Zn132     1.0  0.26408  0.33113  0.54607  1.0000
  Zn  Zn133     1.0  0.06408  0.93113  0.54607  1.0000
  Zn  Zn134     1.0  0.26408  0.13113  0.54607  1.0000
  Zn  Zn135     1.0  0.06408  0.13113  0.54607  1.0000
  Zn  Zn136     1.0  0.66408  0.53113  0.54607  1.0000
  Zn  Zn137     1.0  0.46408  0.93113  0.54607  1.0000
  Zn  Zn138     1.0  0.26408  0.53113  0.54607  1.0000
  Zn  Zn139     1.0  0.86408  0.73113  0.54607  1.0000
  Zn  Zn140     1.0  0.66408  0.93113  0.54607  1.0000
  Zn  Zn141     1.0  0.86408  0.33113  0.54607  1.0000
  Zn  Zn142     1.0  0.06408  0.73113  0.54607  1.0000
  Zn  Zn143     1.0  0.06408  0.33113  0.54607  1.0000
  Zn  Zn144     1.0  0.46408  0.73113  0.54607  1.0000
  Zn  Zn145     1.0  0.26408  0.73113  0.54607  1.0000
  Zn  Zn146     1.0  0.66408  0.33113  0.54607  1.0000
  Zn  Zn147     1.0  0.06408  0.53113  0.54607  1.0000
  Zn  Zn148     1.0  0.46408  0.53113  0.54607  1.0000
  Zn  Zn149     1.0  0.26408  0.93113  0.54607  1.0000
  Zn  Zn150     1.0  0.86408  0.93113  0.54607  1.0000
  O   O126      1.0  0.86401  0.53111  0.56263  1.0000
  O   O127      1.0  0.26401  0.93111  0.56263  1.0000
  O   O128      1.0  0.06401  0.33111  0.56263  1.0000
  O   O129      1.0  0.66401  0.53111  0.56263  1.0000
  O   O130      1.0  0.46401  0.73111  0.56263  1.0000
  O   O131      1.0  0.46401  0.13111  0.56263  1.0000
  O   O132      1.0  0.46401  0.53111  0.56263  1.0000
  O   O133      1.0  0.46401  0.33111  0.56263  1.0000
  O   O134      1.0  0.66401  0.93111  0.56263  1.0000
  O   O135      1.0  0.06401  0.13111  0.56263  1.0000
  O   O136      1.0  0.66401  0.33111  0.56263  1.0000
  O   O137      1.0  0.86401  0.33111  0.56263  1.0000
  O   O138      1.0  0.86401  0.73111  0.56263  1.0000
  O   O139      1.0  0.26401  0.53111  0.56263  1.0000
  O   O140      1.0  0.06401  0.93111  0.56263  1.0000
  O   O141      1.0  0.06401  0.73111  0.56263  1.0000
  O   O142      1.0  0.26401  0.33111  0.56263  1.0000
  O   O143      1.0  0.66401  0.13111  0.56263  1.0000
  O   O144      1.0  0.66401  0.73111  0.56263  1.0000
  O   O145      1.0  0.26401  0.73111  0.56263  1.0000
  O   O146      1.0  0.26401  0.13111  0.56263  1.0000
  O   O147      1.0  0.06401  0.53111  0.56263  1.0000
  O   O148      1.0  0.86401  0.13111  0.56263  1.0000
  O   O149      1.0  0.46401  0.93111  0.56263  1.0000
  O   O150      1.0  0.86401  0.93111  0.56263  1.0000
