data_image0
_chemical_formula_structural       O25
_chemical_formula_sum              "O25"
_cell_length_a       16.3281
_cell_length_b       16.3255
_cell_length_c       120.116
_cell_angle_alpha    90
_cell_angle_beta     90
_cell_angle_gamma    119.996

_space_group_name_H-M_alt    "P 1"
_space_group_IT_number       1

loop_
  _space_group_symop_operation_xyz
  'x, y, z'

loop_
  _atom_site_type_symbol
  _atom_site_label
  _atom_site_symmetry_multiplicity
  _atom_site_fract_x
  _atom_site_fract_y
  _atom_site_fract_z
  _atom_site_occupancy
  O   O1        1.0  0.06455  0.13155  0.44306  1.0000
  O   O2        1.0  0.06455  0.33155  0.44306  1.0000
  O   O3        1.0  0.06455  0.53155  0.44306  1.0000
  O   O4        1.0  0.06455  0.73155  0.44306  1.0000
  O   O5        1.0  0.06455  0.93155  0.44306  1.0000
  O   O6        1.0  0.26455  0.13155  0.44306  1.0000
  O   O7        1.0  0.26455  0.33155  0.44306  1.0000
  O   O8        1.0  0.26455  0.53155  0.44306  1.0000
  O   O9        1.0  0.26455  0.73155  0.44306  1.0000
  O   O10       1.0  0.26455  0.93155  0.44306  1.0000
  O   O11       1.0  0.46455  0.13155  0.44306  1.0000
  O   O12       1.0  0.46455  0.33155  0.44306  1.0000
  O   O13       1.0  0.46455  0.53155  0.44306  1.0000
  O   O14       1.0  0.46455  0.73155  0.44306  1.0000
  O   O15       1.0  0.46455  0.93155  0.44306  1.0000
  O   O16       1.0  0.66455  0.13155  0.44306  1.0000
  O   O17       1.0  0.66455  0.33155  0.44306  1.0000
  O   O18       1.0  0.66455  0.53155  0.44306  1.0000
  O   O19       1.0  0.66455  0.73155  0.44306  1.0000
  O   O20       1.0  0.66455  0.93155  0.44306  1.0000
  O   O21       1.0  0.86455  0.13155  0.44306  1.0000
  O   O22       1.0  0.86455  0.33155  0.44306  1.0000
  O   O23       1.0  0.86455  0.53155  0.44306  1.0000
  O   O24       1.0  0.86455  0.73155  0.44306  1.0000
  O   O25       1.0  0.86455  0.93155  0.44306  1.0000
