data_image0
_cell_length_a       13.088
_cell_length_b       10.5478
_cell_length_c       31.17
_cell_angle_alpha    90
_cell_angle_beta     90
_cell_angle_gamma    90

_symmetry_space_group_name_H-M    "P 1"
_symmetry_int_tables_number       1

loop_
  _symmetry_equiv_pos_as_xyz
  'x, y, z'

loop_
  _atom_site_label
  _atom_site_occupancy
  _atom_site_fract_x
  _atom_site_fract_y
  _atom_site_fract_z
  _atom_site_thermal_displace_type
  _atom_site_B_iso_or_equiv
  _atom_site_type_symbol
  Zn1      1.0000 0.00000  0.49866  0.30303  Biso   1.000  Zn
  O1       1.0000 0.00000  0.19259  0.30303  Biso   1.000  O 
  O2       1.0000 0.12499  0.44259  0.33333  Biso   1.000  O 
  Zn2      1.0000 0.12500  0.24865  0.33333  Biso   1.000  Zn
  Zn3      1.0000 0.12500  0.49866  0.39394  Biso   1.000  Zn
  O3       1.0000 0.12500  0.19259  0.39394  Biso   1.000  O 
  O4       1.0000 0.24999  0.44259  0.42424  Biso   1.000  O 
  Zn4      1.0000 0.00000  0.24865  0.42424  Biso   1.000  Zn
  Zn5      1.0000 0.00000  0.49866  0.48485  Biso   1.000  Zn
  O5       1.0000 0.00000  0.19259  0.48485  Biso   1.000  O 
  O6       1.0000 0.12499  0.44259  0.51515  Biso   1.000  O 
  Zn6      1.0000 0.12500  0.24865  0.51515  Biso   1.000  Zn
  Zn7      1.0000 0.12500  0.49866  0.57576  Biso   1.000  Zn
  O7       1.0000 0.12500  0.19259  0.57576  Biso   1.000  O 
  O8       1.0000 0.25258  0.44323  0.60803  Biso   1.000  O 
  Zn8      1.0000 0.99998  0.25446  0.60361  Biso   1.000  Zn
  Zn9      1.0000 0.00008  0.50495  0.66928  Biso   1.000  Zn
  O9       1.0000 0.99993  0.19380  0.66612  Biso   1.000  O 
  O10      1.0000 0.12528  0.44523  0.69473  Biso   1.000  O 
  Zn10     1.0000 0.12475  0.27136  0.68560  Biso   1.000  Zn
  Zn11     1.0000 0.00000  0.99866  0.30303  Biso   1.000  Zn
  O11      1.0000 0.00000  0.69259  0.30303  Biso   1.000  O 
  O12      1.0000 0.12499  0.94259  0.33333  Biso   1.000  O 
  Zn12     1.0000 0.12500  0.74865  0.33333  Biso   1.000  Zn
  Zn13     1.0000 0.12500  0.99866  0.39394  Biso   1.000  Zn
  O13      1.0000 0.12500  0.69259  0.39394  Biso   1.000  O 
  O14      1.0000 0.24999  0.94259  0.42424  Biso   1.000  O 
  Zn14     1.0000 0.00000  0.74865  0.42424  Biso   1.000  Zn
  Zn15     1.0000 0.00000  0.99866  0.48485  Biso   1.000  Zn
  O15      1.0000 0.00000  0.69259  0.48485  Biso   1.000  O 
  O16      1.0000 0.12499  0.94259  0.51515  Biso   1.000  O 
  Zn16     1.0000 0.12500  0.74865  0.51515  Biso   1.000  Zn
  Zn17     1.0000 0.12500  0.99866  0.57576  Biso   1.000  Zn
  O17      1.0000 0.12500  0.69259  0.57576  Biso   1.000  O 
  O18      1.0000 0.25008  0.94290  0.60606  Biso   1.000  O 
  Zn18     1.0000 0.99998  0.75517  0.60361  Biso   1.000  Zn
  Zn19     1.0000 0.00001  0.00433  0.66931  Biso   1.000  Zn
  O19      1.0000 0.99998  0.69324  0.66613  Biso   1.000  O 
  O20      1.0000 0.12523  0.94557  0.69472  Biso   1.000  O 
  Zn20     1.0000 0.12483  0.77214  0.68549  Biso   1.000  Zn
  Zn21     1.0000 0.25000  0.49866  0.30303  Biso   1.000  Zn
  O21      1.0000 0.25000  0.19259  0.30303  Biso   1.000  O 
  O22      1.0000 0.37499  0.44259  0.33333  Biso   1.000  O 
  Zn22     1.0000 0.37500  0.24865  0.33333  Biso   1.000  Zn
  Zn23     1.0000 0.37500  0.49866  0.39394  Biso   1.000  Zn
  O23      1.0000 0.37500  0.19259  0.39394  Biso   1.000  O 
  O24      1.0000 0.49999  0.44259  0.42424  Biso   1.000  O 
  Zn24     1.0000 0.25000  0.24865  0.42424  Biso   1.000  Zn
  Zn25     1.0000 0.25000  0.49866  0.48485  Biso   1.000  Zn
  O25      1.0000 0.25000  0.19259  0.48485  Biso   1.000  O 
  O26      1.0000 0.37499  0.44259  0.51515  Biso   1.000  O 
  Zn26     1.0000 0.37500  0.24865  0.51515  Biso   1.000  Zn
  Zn27     1.0000 0.37500  0.49866  0.57576  Biso   1.000  Zn
  O27      1.0000 0.37500  0.19259  0.57576  Biso   1.000  O 
  O28      1.0000 0.49847  0.44354  0.60918  Biso   1.000  O 
  Zn28     1.0000 0.24983  0.25304  0.60351  Biso   1.000  Zn
  Zn29     1.0000 0.24820  0.50636  0.67036  Biso   1.000  Zn
  O29      1.0000 0.25217  0.19739  0.66624  Biso   1.000  O 
  Zn30     1.0000 0.37466  0.27763  0.68914  Biso   1.000  Zn
  Zn31     1.0000 0.25000  0.99866  0.30303  Biso   1.000  Zn
  O30      1.0000 0.25000  0.69259  0.30303  Biso   1.000  O 
  O31      1.0000 0.37499  0.94259  0.33333  Biso   1.000  O 
  Zn32     1.0000 0.37500  0.74865  0.33333  Biso   1.000  Zn
  Zn33     1.0000 0.37500  0.99866  0.39394  Biso   1.000  Zn
  O32      1.0000 0.37500  0.69259  0.39394  Biso   1.000  O 
  O33      1.0000 0.49999  0.94259  0.42424  Biso   1.000  O 
  Zn34     1.0000 0.25000  0.74865  0.42424  Biso   1.000  Zn
  Zn35     1.0000 0.25000  0.99866  0.48485  Biso   1.000  Zn
  O34      1.0000 0.25000  0.69259  0.48485  Biso   1.000  O 
  O35      1.0000 0.37499  0.94259  0.51515  Biso   1.000  O 
  Zn36     1.0000 0.37500  0.74865  0.51515  Biso   1.000  Zn
  Zn37     1.0000 0.37500  0.99866  0.57576  Biso   1.000  Zn
  O36      1.0000 0.37500  0.69259  0.57576  Biso   1.000  O 
  O37      1.0000 0.50003  0.94295  0.60609  Biso   1.000  O 
  Zn38     1.0000 0.24987  0.75538  0.60345  Biso   1.000  Zn
  Zn39     1.0000 0.25010  0.00449  0.66936  Biso   1.000  Zn
  O38      1.0000 0.25090  0.69123  0.66618  Biso   1.000  O 
  O39      1.0000 0.37510  0.94583  0.69472  Biso   1.000  O 
  Zn40     1.0000 0.37461  0.77284  0.68584  Biso   1.000  Zn
  Zn41     1.0000 0.50000  0.49866  0.30303  Biso   1.000  Zn
  O40      1.0000 0.50000  0.19259  0.30303  Biso   1.000  O 
  O41      1.0000 0.62499  0.44259  0.33333  Biso   1.000  O 
  Zn42     1.0000 0.62500  0.24865  0.33333  Biso   1.000  Zn
  Zn43     1.0000 0.62500  0.49866  0.39394  Biso   1.000  Zn
  O42      1.0000 0.62500  0.19259  0.39394  Biso   1.000  O 
  O43      1.0000 0.74999  0.44259  0.42424  Biso   1.000  O 
  Zn44     1.0000 0.50000  0.24865  0.42424  Biso   1.000  Zn
  Zn45     1.0000 0.50000  0.49866  0.48485  Biso   1.000  Zn
  O44      1.0000 0.50000  0.19259  0.48485  Biso   1.000  O 
  O45      1.0000 0.62499  0.44259  0.51515  Biso   1.000  O 
  Zn46     1.0000 0.62500  0.24865  0.51515  Biso   1.000  Zn
  Zn47     1.0000 0.62500  0.49866  0.57576  Biso   1.000  Zn
  O46      1.0000 0.62500  0.19259  0.57576  Biso   1.000  O 
  O47      1.0000 0.74778  0.44319  0.60754  Biso   1.000  O 
  Zn48     1.0000 0.50005  0.25145  0.60346  Biso   1.000  Zn
  Zn49     1.0000 0.49697  0.50823  0.66762  Biso   1.000  Zn
  O48      1.0000 0.49814  0.19943  0.66612  Biso   1.000  O 
  O49      1.0000 0.59240  0.43492  0.71103  Biso   1.000  O 
  Zn50     1.0000 0.62348  0.28309  0.68838  Biso   1.000  Zn
  Zn51     1.0000 0.50000  0.99866  0.30303  Biso   1.000  Zn
  O50      1.0000 0.50000  0.69259  0.30303  Biso   1.000  O 
  O51      1.0000 0.62499  0.94259  0.33333  Biso   1.000  O 
  Zn52     1.0000 0.62500  0.74865  0.33333  Biso   1.000  Zn
  Zn53     1.0000 0.62500  0.99866  0.39394  Biso   1.000  Zn
  O52      1.0000 0.62500  0.69259  0.39394  Biso   1.000  O 
  O53      1.0000 0.74999  0.94259  0.42424  Biso   1.000  O 
  Zn54     1.0000 0.50000  0.74865  0.42424  Biso   1.000  Zn
  Zn55     1.0000 0.50000  0.99866  0.48485  Biso   1.000  Zn
  O54      1.0000 0.50000  0.69259  0.48485  Biso   1.000  O 
  O55      1.0000 0.62499  0.94259  0.51515  Biso   1.000  O 
  Zn56     1.0000 0.62500  0.74865  0.51515  Biso   1.000  Zn
  Zn57     1.0000 0.62500  0.99866  0.57576  Biso   1.000  Zn
  O56      1.0000 0.62500  0.69259  0.57576  Biso   1.000  O 
  O57      1.0000 0.74991  0.94282  0.60608  Biso   1.000  O 
  Zn58     1.0000 0.49994  0.75586  0.60332  Biso   1.000  Zn
  Zn59     1.0000 0.49990  0.00463  0.66937  Biso   1.000  Zn
  O58      1.0000 0.49848  0.69142  0.66590  Biso   1.000  O 
  O59      1.0000 0.62472  0.94529  0.69465  Biso   1.000  O 
  Zn60     1.0000 0.62481  0.77166  0.68594  Biso   1.000  Zn
  Zn61     1.0000 0.75000  0.49866  0.30303  Biso   1.000  Zn
  O60      1.0000 0.75000  0.19259  0.30303  Biso   1.000  O 
  O61      1.0000 0.87499  0.44259  0.33333  Biso   1.000  O 
  Zn62     1.0000 0.87500  0.24865  0.33333  Biso   1.000  Zn
  Zn63     1.0000 0.87500  0.49866  0.39394  Biso   1.000  Zn
  O62      1.0000 0.87500  0.19259  0.39394  Biso   1.000  O 
  O63      1.0000 0.99999  0.44259  0.42424  Biso   1.000  O 
  Zn64     1.0000 0.75000  0.24865  0.42424  Biso   1.000  Zn
  Zn65     1.0000 0.75000  0.49866  0.48485  Biso   1.000  Zn
  O64      1.0000 0.75000  0.19259  0.48485  Biso   1.000  O 
  O65      1.0000 0.87499  0.44259  0.51515  Biso   1.000  O 
  Zn66     1.0000 0.87500  0.24865  0.51515  Biso   1.000  Zn
  Zn67     1.0000 0.87500  0.49866  0.57576  Biso   1.000  Zn
  O66      1.0000 0.87500  0.19259  0.57576  Biso   1.000  O 
  O67      1.0000 0.99999  0.44284  0.60611  Biso   1.000  O 
  Zn68     1.0000 0.75007  0.25332  0.60356  Biso   1.000  Zn
  Zn69     1.0000 0.74990  0.50523  0.66938  Biso   1.000  Zn
  O68      1.0000 0.74714  0.19751  0.66666  Biso   1.000  O 
  O69      1.0000 0.87242  0.44563  0.69500  Biso   1.000  O 
  Zn70     1.0000 0.87548  0.27116  0.68551  Biso   1.000  Zn
  Zn71     1.0000 0.75000  0.99866  0.30303  Biso   1.000  Zn
  O70      1.0000 0.75000  0.69259  0.30303  Biso   1.000  O 
  O71      1.0000 0.87499  0.94259  0.33333  Biso   1.000  O 
  Zn72     1.0000 0.87500  0.74865  0.33333  Biso   1.000  Zn
  Zn73     1.0000 0.87500  0.99866  0.39394  Biso   1.000  Zn
  O72      1.0000 0.87500  0.69259  0.39394  Biso   1.000  O 
  O73      1.0000 0.99999  0.94259  0.42424  Biso   1.000  O 
  Zn74     1.0000 0.75000  0.74865  0.42424  Biso   1.000  Zn
  Zn75     1.0000 0.75000  0.99866  0.48485  Biso   1.000  Zn
  O74      1.0000 0.75000  0.69259  0.48485  Biso   1.000  O 
  O75      1.0000 0.87499  0.94259  0.51515  Biso   1.000  O 
  Zn76     1.0000 0.87500  0.74865  0.51515  Biso   1.000  Zn
  Zn77     1.0000 0.87500  0.99866  0.57576  Biso   1.000  Zn
  O76      1.0000 0.87500  0.69259  0.57576  Biso   1.000  O 
  O77      1.0000 0.00001  0.94283  0.60598  Biso   1.000  O 
  Zn78     1.0000 0.75015  0.75534  0.60344  Biso   1.000  Zn
  Zn79     1.0000 0.74987  0.00428  0.66937  Biso   1.000  Zn
  O78      1.0000 0.74910  0.69051  0.66636  Biso   1.000  O 
  O79      1.0000 0.87477  0.94556  0.69475  Biso   1.000  O 
  Zn80     1.0000 0.87533  0.77222  0.68548  Biso   1.000  Zn
  C1       1.0000 0.48560  0.41788  0.74682  Biso   1.000  C 
  O80      1.0000 0.48647  0.43774  0.80119  Biso   1.000  O 
  O81      1.0000 0.37903  0.43742  0.71157  Biso   1.000  O 
