data_image0
_chemical_formula_structural       Zn172Pd122O172
_chemical_formula_sum              "Zn172 Pd122 O172"
_cell_length_a       21.4535
_cell_length_b       21.4535
_cell_length_c       34.103
_cell_angle_alpha    90
_cell_angle_beta     90
_cell_angle_gamma    60

_space_group_name_H-M_alt    "P 1"
_space_group_IT_number       1

loop_
  _space_group_symop_operation_xyz
  'x, y, z'

loop_
  _atom_site_type_symbol
  _atom_site_label
  _atom_site_symmetry_multiplicity
  _atom_site_fract_x
  _atom_site_fract_y
  _atom_site_fract_z
  _atom_site_occupancy
  Zn  Zn1       1.0  0.93798  0.10078  0.70638  1.0000
  Zn  Zn2       1.0  0.07752  0.12403  0.70638  1.0000
  Zn  Zn3       1.0  0.21705  0.14729  0.70638  1.0000
  Zn  Zn4       1.0  0.35659  0.17054  0.70638  1.0000
  Zn  Zn5       1.0  0.49612  0.19380  0.70638  1.0000
  Zn  Zn6       1.0  0.63566  0.21705  0.70638  1.0000
  Zn  Zn7       1.0  0.77519  0.24031  0.70638  1.0000
  Zn  Zn8       1.0  0.91473  0.26357  0.70638  1.0000
  Zn  Zn9       1.0  0.05426  0.28682  0.70638  1.0000
  Zn  Zn10      1.0  0.19380  0.31008  0.70638  1.0000
  Zn  Zn11      1.0  0.33333  0.33333  0.70638  1.0000
  Zn  Zn12      1.0  0.47287  0.35659  0.70638  1.0000
  Zn  Zn13      1.0  0.61240  0.37984  0.70638  1.0000
  Zn  Zn14      1.0  0.75194  0.40310  0.70638  1.0000
  Zn  Zn15      1.0  0.89147  0.42636  0.70638  1.0000
  Zn  Zn16      1.0  0.03101  0.44961  0.70638  1.0000
  Zn  Zn17      1.0  0.17054  0.47287  0.70638  1.0000
  Zn  Zn18      1.0  0.31008  0.49612  0.70638  1.0000
  Zn  Zn19      1.0  0.44961  0.51938  0.70638  1.0000
  Zn  Zn20      1.0  0.58915  0.54264  0.70638  1.0000
  Zn  Zn21      1.0  0.72868  0.56589  0.70638  1.0000
  Zn  Zn22      1.0  0.86822  0.58915  0.70638  1.0000
  Zn  Zn23      1.0  0.00775  0.61240  0.70638  1.0000
  Zn  Zn24      1.0  0.14729  0.63566  0.70638  1.0000
  Zn  Zn25      1.0  0.28682  0.65891  0.70638  1.0000
  Zn  Zn26      1.0  0.42636  0.68217  0.70638  1.0000
  Zn  Zn27      1.0  0.56589  0.70543  0.70638  1.0000
  Zn  Zn28      1.0  0.70543  0.72868  0.70638  1.0000
  Zn  Zn29      1.0  0.84496  0.75194  0.70638  1.0000
  Zn  Zn30      1.0  0.98450  0.77519  0.70638  1.0000
  Zn  Zn31      1.0  0.12403  0.79845  0.70638  1.0000
  Zn  Zn32      1.0  0.26357  0.82171  0.70638  1.0000
  Zn  Zn33      1.0  0.40310  0.84496  0.70638  1.0000
  Zn  Zn34      1.0  0.54264  0.86822  0.70638  1.0000
  Zn  Zn35      1.0  0.68217  0.89147  0.70638  1.0000
  Zn  Zn36      1.0  0.82171  0.91473  0.70638  1.0000
  Zn  Zn37      1.0  0.96124  0.93798  0.70638  1.0000
  Zn  Zn38      1.0  0.10078  0.96124  0.70638  1.0000
  Zn  Zn39      1.0  0.24031  0.98450  0.70638  1.0000
  Zn  Zn40      1.0  0.37984  0.00775  0.70638  1.0000
  Zn  Zn41      1.0  0.51938  0.03101  0.70638  1.0000
  Zn  Zn42      1.0  0.65891  0.05426  0.70638  1.0000
  Zn  Zn43      1.0  0.79845  0.07752  0.70638  1.0000
  Zn  Zn44      1.0  0.03876  0.06202  0.62948  1.0000
  Zn  Zn45      1.0  0.17829  0.08527  0.62948  1.0000
  Zn  Zn46      1.0  0.31783  0.10853  0.62948  1.0000
  Zn  Zn47      1.0  0.45736  0.13178  0.62948  1.0000
  Zn  Zn48      1.0  0.59690  0.15504  0.62948  1.0000
  Zn  Zn49      1.0  0.73643  0.17829  0.62948  1.0000
  Zn  Zn50      1.0  0.87597  0.20155  0.62948  1.0000
  Zn  Zn51      1.0  0.01550  0.22481  0.62948  1.0000
  Zn  Zn52      1.0  0.15504  0.24806  0.62948  1.0000
  Zn  Zn53      1.0  0.29457  0.27132  0.62948  1.0000
  Zn  Zn54      1.0  0.43411  0.29457  0.62948  1.0000
  Zn  Zn55      1.0  0.57364  0.31783  0.62948  1.0000
  Zn  Zn56      1.0  0.71318  0.34109  0.62948  1.0000
  Zn  Zn57      1.0  0.85271  0.36434  0.62948  1.0000
  Zn  Zn58      1.0  0.99225  0.38760  0.62948  1.0000
  Zn  Zn59      1.0  0.13178  0.41085  0.62948  1.0000
  Zn  Zn60      1.0  0.27132  0.43411  0.62948  1.0000
  Zn  Zn61      1.0  0.41085  0.45736  0.62948  1.0000
  Zn  Zn62      1.0  0.55039  0.48062  0.62948  1.0000
  Zn  Zn63      1.0  0.68992  0.50388  0.62948  1.0000
  Zn  Zn64      1.0  0.82946  0.52713  0.62948  1.0000
  Zn  Zn65      1.0  0.96899  0.55039  0.62948  1.0000
  Zn  Zn66      1.0  0.10853  0.57364  0.62948  1.0000
  Zn  Zn67      1.0  0.24806  0.59690  0.62948  1.0000
  Zn  Zn68      1.0  0.38760  0.62016  0.62948  1.0000
  Zn  Zn69      1.0  0.52713  0.64341  0.62948  1.0000
  Zn  Zn70      1.0  0.66667  0.66667  0.62948  1.0000
  Zn  Zn71      1.0  0.80620  0.68992  0.62948  1.0000
  Zn  Zn72      1.0  0.94574  0.71318  0.62948  1.0000
  Zn  Zn73      1.0  0.08527  0.73643  0.62948  1.0000
  Zn  Zn74      1.0  0.22481  0.75969  0.62948  1.0000
  Zn  Zn75      1.0  0.36434  0.78295  0.62948  1.0000
  Zn  Zn76      1.0  0.50388  0.80620  0.62948  1.0000
  Zn  Zn77      1.0  0.64341  0.82946  0.62948  1.0000
  Zn  Zn78      1.0  0.78295  0.85271  0.62948  1.0000
  Zn  Zn79      1.0  0.92248  0.87597  0.62948  1.0000
  Zn  Zn80      1.0  0.06202  0.89922  0.62948  1.0000
  Zn  Zn81      1.0  0.20155  0.92248  0.62948  1.0000
  Zn  Zn82      1.0  0.34109  0.94574  0.62948  1.0000
  Zn  Zn83      1.0  0.48062  0.96899  0.62948  1.0000
  Zn  Zn84      1.0  0.62016  0.99225  0.62948  1.0000
  Zn  Zn85      1.0  0.75969  0.01550  0.62948  1.0000
  Zn  Zn86      1.0  0.89922  0.03876  0.62948  1.0000
  Zn  Zn87      1.0  0.93798  0.10078  0.55259  1.0000
  Zn  Zn88      1.0  0.07752  0.12403  0.55259  1.0000
  Zn  Zn89      1.0  0.21705  0.14729  0.55259  1.0000
  Zn  Zn90      1.0  0.35659  0.17054  0.55259  1.0000
  Zn  Zn91      1.0  0.49612  0.19380  0.55259  1.0000
  Zn  Zn92      1.0  0.63566  0.21705  0.55259  1.0000
  Zn  Zn93      1.0  0.77519  0.24031  0.55259  1.0000
  Zn  Zn94      1.0  0.91473  0.26357  0.55259  1.0000
  Zn  Zn95      1.0  0.05426  0.28682  0.55259  1.0000
  Zn  Zn96      1.0  0.19380  0.31008  0.55259  1.0000
  Zn  Zn97      1.0  0.33333  0.33333  0.55259  1.0000
  Zn  Zn98      1.0  0.47287  0.35659  0.55259  1.0000
  Zn  Zn99      1.0  0.61240  0.37984  0.55259  1.0000
  Zn  Zn100     1.0  0.75194  0.40310  0.55259  1.0000
  Zn  Zn101     1.0  0.89147  0.42636  0.55259  1.0000
  Zn  Zn102     1.0  0.03101  0.44961  0.55259  1.0000
  Zn  Zn103     1.0  0.17054  0.47287  0.55259  1.0000
  Zn  Zn104     1.0  0.31008  0.49612  0.55259  1.0000
  Zn  Zn105     1.0  0.44961  0.51938  0.55259  1.0000
  Zn  Zn106     1.0  0.58915  0.54264  0.55259  1.0000
  Zn  Zn107     1.0  0.72868  0.56589  0.55259  1.0000
  Zn  Zn108     1.0  0.86822  0.58915  0.55259  1.0000
  Zn  Zn109     1.0  0.00775  0.61240  0.55259  1.0000
  Zn  Zn110     1.0  0.14729  0.63566  0.55259  1.0000
  Zn  Zn111     1.0  0.28682  0.65891  0.55259  1.0000
  Zn  Zn112     1.0  0.42636  0.68217  0.55259  1.0000
  Zn  Zn113     1.0  0.56589  0.70543  0.55259  1.0000
  Zn  Zn114     1.0  0.70543  0.72868  0.55259  1.0000
  Zn  Zn115     1.0  0.84496  0.75194  0.55259  1.0000
  Zn  Zn116     1.0  0.98450  0.77519  0.55259  1.0000
  Zn  Zn117     1.0  0.12403  0.79845  0.55259  1.0000
  Zn  Zn118     1.0  0.26357  0.82171  0.55259  1.0000
  Zn  Zn119     1.0  0.40310  0.84496  0.55259  1.0000
  Zn  Zn120     1.0  0.54264  0.86822  0.55259  1.0000
  Zn  Zn121     1.0  0.68217  0.89147  0.55259  1.0000
  Zn  Zn122     1.0  0.82171  0.91473  0.55259  1.0000
  Zn  Zn123     1.0  0.96124  0.93798  0.55259  1.0000
  Zn  Zn124     1.0  0.10078  0.96124  0.55259  1.0000
  Zn  Zn125     1.0  0.24031  0.98450  0.55259  1.0000
  Zn  Zn126     1.0  0.37984  0.00775  0.55259  1.0000
  Zn  Zn127     1.0  0.51938  0.03101  0.55259  1.0000
  Zn  Zn128     1.0  0.65891  0.05426  0.55259  1.0000
  Zn  Zn129     1.0  0.79845  0.07752  0.55259  1.0000
  Zn  Zn130     1.0  0.03876  0.06202  0.47570  1.0000
  Zn  Zn131     1.0  0.17829  0.08527  0.47570  1.0000
  Zn  Zn132     1.0  0.31783  0.10853  0.47570  1.0000
  Zn  Zn133     1.0  0.45736  0.13178  0.47570  1.0000
  Zn  Zn134     1.0  0.59690  0.15504  0.47570  1.0000
  Zn  Zn135     1.0  0.73643  0.17829  0.47570  1.0000
  Zn  Zn136     1.0  0.87597  0.20155  0.47570  1.0000
  Zn  Zn137     1.0  0.01550  0.22481  0.47570  1.0000
  Zn  Zn138     1.0  0.15504  0.24806  0.47570  1.0000
  Zn  Zn139     1.0  0.29457  0.27132  0.47570  1.0000
  Zn  Zn140     1.0  0.43411  0.29457  0.47570  1.0000
  Zn  Zn141     1.0  0.57364  0.31783  0.47570  1.0000
  Zn  Zn142     1.0  0.71318  0.34109  0.47570  1.0000
  Zn  Zn143     1.0  0.85271  0.36434  0.47570  1.0000
  Zn  Zn144     1.0  0.99225  0.38760  0.47570  1.0000
  Zn  Zn145     1.0  0.13178  0.41085  0.47570  1.0000
  Zn  Zn146     1.0  0.27132  0.43411  0.47570  1.0000
  Zn  Zn147     1.0  0.41085  0.45736  0.47570  1.0000
  Zn  Zn148     1.0  0.55039  0.48062  0.47570  1.0000
  Zn  Zn149     1.0  0.68992  0.50388  0.47570  1.0000
  Zn  Zn150     1.0  0.82946  0.52713  0.47570  1.0000
  Zn  Zn151     1.0  0.96899  0.55039  0.47570  1.0000
  Zn  Zn152     1.0  0.10853  0.57364  0.47570  1.0000
  Zn  Zn153     1.0  0.24806  0.59690  0.47570  1.0000
  Zn  Zn154     1.0  0.38760  0.62016  0.47570  1.0000
  Zn  Zn155     1.0  0.52713  0.64341  0.47570  1.0000
  Zn  Zn156     1.0  0.66667  0.66667  0.47570  1.0000
  Zn  Zn157     1.0  0.80620  0.68992  0.47570  1.0000
  Zn  Zn158     1.0  0.94574  0.71318  0.47570  1.0000
  Zn  Zn159     1.0  0.08527  0.73643  0.47570  1.0000
  Zn  Zn160     1.0  0.22481  0.75969  0.47570  1.0000
  Zn  Zn161     1.0  0.36434  0.78295  0.47570  1.0000
  Zn  Zn162     1.0  0.50388  0.80620  0.47570  1.0000
  Zn  Zn163     1.0  0.64341  0.82946  0.47570  1.0000
  Zn  Zn164     1.0  0.78295  0.85271  0.47570  1.0000
  Zn  Zn165     1.0  0.92248  0.87597  0.47570  1.0000
  Zn  Zn166     1.0  0.06202  0.89922  0.47570  1.0000
  Zn  Zn167     1.0  0.20155  0.92248  0.47570  1.0000
  Zn  Zn168     1.0  0.34109  0.94574  0.47570  1.0000
  Zn  Zn169     1.0  0.48062  0.96899  0.47570  1.0000
  Zn  Zn170     1.0  0.62016  0.99225  0.47570  1.0000
  Zn  Zn171     1.0  0.75969  0.01550  0.47570  1.0000
  Zn  Zn172     1.0  0.89922  0.03876  0.47570  1.0000
  Pd  Pd1       1.0  0.21311  0.77049  0.35860  1.0000
  Pd  Pd2       1.0  0.22951  -0.01639  0.35860  1.0000
  Pd  Pd3       1.0  0.29508  0.83607  0.35860  1.0000
  Pd  Pd4       1.0  0.24590  0.19672  0.35860  1.0000
  Pd  Pd5       1.0  0.31148  0.04918  0.35860  1.0000
  Pd  Pd6       1.0  0.37705  0.90164  0.35860  1.0000
  Pd  Pd7       1.0  0.26230  0.40984  0.35860  1.0000
  Pd  Pd8       1.0  0.32787  0.26230  0.35860  1.0000
  Pd  Pd9       1.0  0.39344  0.11475  0.35860  1.0000
  Pd  Pd10      1.0  0.45902  -0.03279  0.35860  1.0000
  Pd  Pd11      1.0  0.52459  0.81967  0.35860  1.0000
  Pd  Pd12      1.0  0.27869  0.62295  0.35860  1.0000
  Pd  Pd13      1.0  0.34426  0.47541  0.35860  1.0000
  Pd  Pd14      1.0  0.40984  0.32787  0.35860  1.0000
  Pd  Pd15      1.0  0.47541  0.18033  0.35860  1.0000
  Pd  Pd16      1.0  0.54098  0.03279  0.35860  1.0000
  Pd  Pd17      1.0  0.60656  0.88525  0.35860  1.0000
  Pd  Pd18      1.0  0.36066  0.68852  0.35860  1.0000
  Pd  Pd19      1.0  0.42623  0.54098  0.35860  1.0000
  Pd  Pd20      1.0  0.49180  0.39344  0.35860  1.0000
  Pd  Pd21      1.0  0.55738  0.24590  0.35860  1.0000
  Pd  Pd22      1.0  0.62295  0.09836  0.35860  1.0000
  Pd  Pd23      1.0  0.68852  0.95082  0.35860  1.0000
  Pd  Pd24      1.0  0.75410  0.80328  0.35860  1.0000
  Pd  Pd25      1.0  0.44262  0.75410  0.35860  1.0000
  Pd  Pd26      1.0  0.50820  0.60656  0.35860  1.0000
  Pd  Pd27      1.0  0.57377  0.45902  0.35860  1.0000
  Pd  Pd28      1.0  0.63934  0.31148  0.35860  1.0000
  Pd  Pd29      1.0  0.70492  0.16393  0.35860  1.0000
  Pd  Pd30      1.0  0.77049  0.01639  0.35860  1.0000
  Pd  Pd31      1.0  0.83607  0.86885  0.35860  1.0000
  Pd  Pd32      1.0  0.59016  0.67213  0.35860  1.0000
  Pd  Pd33      1.0  0.65574  0.52459  0.35860  1.0000
  Pd  Pd34      1.0  0.72131  0.37705  0.35860  1.0000
  Pd  Pd35      1.0  0.78689  0.22951  0.35860  1.0000
  Pd  Pd36      1.0  0.85246  0.08197  0.35860  1.0000
  Pd  Pd37      1.0  0.91803  0.93443  0.35860  1.0000
  Pd  Pd38      1.0  0.98361  0.78689  0.35860  1.0000
  Pd  Pd39      1.0  0.67213  0.73770  0.35860  1.0000
  Pd  Pd40      1.0  0.73770  0.59016  0.35860  1.0000
  Pd  Pd41      1.0  0.80328  0.44262  0.35860  1.0000
  Pd  Pd42      1.0  0.86885  0.29508  0.35860  1.0000
  Pd  Pd43      1.0  0.93443  0.14754  0.35860  1.0000
  Pd  Pd44      1.0  1.00000  0.00000  0.35860  1.0000
  Pd  Pd45      1.0  0.06557  0.85246  0.35860  1.0000
  Pd  Pd46      1.0  0.81967  0.65574  0.35860  1.0000
  Pd  Pd47      1.0  0.88525  0.50820  0.35860  1.0000
  Pd  Pd48      1.0  0.95082  0.36066  0.35860  1.0000
  Pd  Pd49      1.0  1.01639  0.21311  0.35860  1.0000
  Pd  Pd50      1.0  0.08197  0.06557  0.35860  1.0000
  Pd  Pd51      1.0  0.14754  0.91803  0.35860  1.0000
  Pd  Pd52      1.0  0.90164  0.72131  0.35860  1.0000
  Pd  Pd53      1.0  0.96721  0.57377  0.35860  1.0000
  Pd  Pd54      1.0  1.03279  0.42623  0.35860  1.0000
  Pd  Pd55      1.0  0.09836  0.27869  0.35860  1.0000
  Pd  Pd56      1.0  0.16393  0.13115  0.35860  1.0000
  Pd  Pd57      1.0  0.04918  0.63934  0.35860  1.0000
  Pd  Pd58      1.0  0.11475  0.49180  0.35860  1.0000
  Pd  Pd59      1.0  0.18033  0.34426  0.35860  1.0000
  Pd  Pd60      1.0  0.13115  0.70492  0.35860  1.0000
  Pd  Pd61      1.0  0.19672  0.55738  0.35860  1.0000
  Pd  Pd62      1.0  0.07104  0.92350  0.29283  1.0000
  Pd  Pd63      1.0  0.08743  0.13661  0.29283  1.0000
  Pd  Pd64      1.0  0.15301  -0.01093  0.29283  1.0000
  Pd  Pd65      1.0  0.10383  0.34973  0.29283  1.0000
  Pd  Pd66      1.0  0.16940  0.20219  0.29283  1.0000
  Pd  Pd67      1.0  0.23497  0.05464  0.29283  1.0000
  Pd  Pd68      1.0  0.12022  0.56284  0.29283  1.0000
  Pd  Pd69      1.0  0.18579  0.41530  0.29283  1.0000
  Pd  Pd70      1.0  0.25137  0.26776  0.29283  1.0000
  Pd  Pd71      1.0  0.31694  0.12022  0.29283  1.0000
  Pd  Pd72      1.0  0.38251  -0.02732  0.29283  1.0000
  Pd  Pd73      1.0  0.13661  0.77596  0.29283  1.0000
  Pd  Pd74      1.0  0.20219  0.62842  0.29283  1.0000
  Pd  Pd75      1.0  0.26776  0.48087  0.29283  1.0000
  Pd  Pd76      1.0  0.33333  0.33333  0.29283  1.0000
  Pd  Pd77      1.0  0.39891  0.18579  0.29283  1.0000
  Pd  Pd78      1.0  0.46448  0.03825  0.29283  1.0000
  Pd  Pd79      1.0  0.21858  0.84153  0.29283  1.0000
  Pd  Pd80      1.0  0.28415  0.69399  0.29283  1.0000
  Pd  Pd81      1.0  0.34973  0.54645  0.29283  1.0000
  Pd  Pd82      1.0  0.41530  0.39891  0.29283  1.0000
  Pd  Pd83      1.0  0.48087  0.25137  0.29283  1.0000
  Pd  Pd84      1.0  0.54645  0.10383  0.29283  1.0000
  Pd  Pd85      1.0  0.61202  0.95628  0.29283  1.0000
  Pd  Pd86      1.0  0.30055  0.90710  0.29283  1.0000
  Pd  Pd87      1.0  0.36612  0.75956  0.29283  1.0000
  Pd  Pd88      1.0  0.43169  0.61202  0.29283  1.0000
  Pd  Pd89      1.0  0.49727  0.46448  0.29283  1.0000
  Pd  Pd90      1.0  0.56284  0.31694  0.29283  1.0000
  Pd  Pd91      1.0  0.62842  0.16940  0.29283  1.0000
  Pd  Pd92      1.0  0.69399  0.02186  0.29283  1.0000
  Pd  Pd93      1.0  0.44809  0.82514  0.29283  1.0000
  Pd  Pd94      1.0  0.51366  0.67760  0.29283  1.0000
  Pd  Pd95      1.0  0.57923  0.53005  0.29283  1.0000
  Pd  Pd96      1.0  0.64481  0.38251  0.29283  1.0000
  Pd  Pd97      1.0  0.71038  0.23497  0.29283  1.0000
  Pd  Pd98      1.0  0.77596  0.08743  0.29283  1.0000
  Pd  Pd99      1.0  0.84153  0.93989  0.29283  1.0000
  Pd  Pd100     1.0  0.53005  0.89071  0.29283  1.0000
  Pd  Pd101     1.0  0.59563  0.74317  0.29283  1.0000
  Pd  Pd102     1.0  0.66120  0.59563  0.29283  1.0000
  Pd  Pd103     1.0  0.72678  0.44809  0.29283  1.0000
  Pd  Pd104     1.0  0.79235  0.30055  0.29283  1.0000
  Pd  Pd105     1.0  0.85792  0.15301  0.29283  1.0000
  Pd  Pd106     1.0  0.92350  0.00546  0.29283  1.0000
  Pd  Pd107     1.0  0.67760  0.80874  0.29283  1.0000
  Pd  Pd108     1.0  0.74317  0.66120  0.29283  1.0000
  Pd  Pd109     1.0  0.80874  0.51366  0.29283  1.0000
  Pd  Pd110     1.0  0.87432  0.36612  0.29283  1.0000
  Pd  Pd111     1.0  0.93989  0.21858  0.29283  1.0000
  Pd  Pd112     1.0  1.00546  0.07104  0.29283  1.0000
  Pd  Pd113     1.0  0.75956  0.87432  0.29283  1.0000
  Pd  Pd114     1.0  0.82514  0.72678  0.29283  1.0000
  Pd  Pd115     1.0  0.89071  0.57923  0.29283  1.0000
  Pd  Pd116     1.0  0.95628  0.43169  0.29283  1.0000
  Pd  Pd117     1.0  1.02186  0.28415  0.29283  1.0000
  Pd  Pd118     1.0  0.90710  0.79235  0.29283  1.0000
  Pd  Pd119     1.0  0.97268  0.64481  0.29283  1.0000
  Pd  Pd120     1.0  0.03825  0.49727  0.29283  1.0000
  Pd  Pd121     1.0  0.98907  0.85792  0.29283  1.0000
  Pd  Pd122     1.0  0.05464  0.71038  0.29283  1.0000
  O   O1        1.0  0.93798  0.10078  0.64792  1.0000
  O   O2        1.0  0.07752  0.12403  0.64792  1.0000
  O   O3        1.0  0.21705  0.14729  0.64792  1.0000
  O   O4        1.0  0.35659  0.17054  0.64792  1.0000
  O   O5        1.0  0.49612  0.19380  0.64792  1.0000
  O   O6        1.0  0.63566  0.21705  0.64792  1.0000
  O   O7        1.0  0.77519  0.24031  0.64792  1.0000
  O   O8        1.0  0.91473  0.26357  0.64792  1.0000
  O   O9        1.0  0.05426  0.28682  0.64792  1.0000
  O   O10       1.0  0.19380  0.31008  0.64792  1.0000
  O   O11       1.0  0.33333  0.33333  0.64792  1.0000
  O   O12       1.0  0.47287  0.35659  0.64792  1.0000
  O   O13       1.0  0.61240  0.37984  0.64792  1.0000
  O   O14       1.0  0.75194  0.40310  0.64792  1.0000
  O   O15       1.0  0.89147  0.42636  0.64792  1.0000
  O   O16       1.0  0.03101  0.44961  0.64792  1.0000
  O   O17       1.0  0.17054  0.47287  0.64792  1.0000
  O   O18       1.0  0.31008  0.49612  0.64792  1.0000
  O   O19       1.0  0.44961  0.51938  0.64792  1.0000
  O   O20       1.0  0.58915  0.54264  0.64792  1.0000
  O   O21       1.0  0.72868  0.56589  0.64792  1.0000
  O   O22       1.0  0.86822  0.58915  0.64792  1.0000
  O   O23       1.0  0.00775  0.61240  0.64792  1.0000
  O   O24       1.0  0.14729  0.63566  0.64792  1.0000
  O   O25       1.0  0.28682  0.65891  0.64792  1.0000
  O   O26       1.0  0.42636  0.68217  0.64792  1.0000
  O   O27       1.0  0.56589  0.70543  0.64792  1.0000
  O   O28       1.0  0.70543  0.72868  0.64792  1.0000
  O   O29       1.0  0.84496  0.75194  0.64792  1.0000
  O   O30       1.0  0.98450  0.77519  0.64792  1.0000
  O   O31       1.0  0.12403  0.79845  0.64792  1.0000
  O   O32       1.0  0.26357  0.82171  0.64792  1.0000
  O   O33       1.0  0.40310  0.84496  0.64792  1.0000
  O   O34       1.0  0.54264  0.86822  0.64792  1.0000
  O   O35       1.0  0.68217  0.89147  0.64792  1.0000
  O   O36       1.0  0.82171  0.91473  0.64792  1.0000
  O   O37       1.0  0.96124  0.93798  0.64792  1.0000
  O   O38       1.0  0.10078  0.96124  0.64792  1.0000
  O   O39       1.0  0.24031  0.98450  0.64792  1.0000
  O   O40       1.0  0.37984  0.00775  0.64792  1.0000
  O   O41       1.0  0.51938  0.03101  0.64792  1.0000
  O   O42       1.0  0.65891  0.05426  0.64792  1.0000
  O   O43       1.0  0.79845  0.07752  0.64792  1.0000
  O   O44       1.0  0.03876  0.06202  0.57103  1.0000
  O   O45       1.0  0.17829  0.08527  0.57103  1.0000
  O   O46       1.0  0.31783  0.10853  0.57103  1.0000
  O   O47       1.0  0.45736  0.13178  0.57103  1.0000
  O   O48       1.0  0.59690  0.15504  0.57103  1.0000
  O   O49       1.0  0.73643  0.17829  0.57103  1.0000
  O   O50       1.0  0.87597  0.20155  0.57103  1.0000
  O   O51       1.0  0.01550  0.22481  0.57103  1.0000
  O   O52       1.0  0.15504  0.24806  0.57103  1.0000
  O   O53       1.0  0.29457  0.27132  0.57103  1.0000
  O   O54       1.0  0.43411  0.29457  0.57103  1.0000
  O   O55       1.0  0.57364  0.31783  0.57103  1.0000
  O   O56       1.0  0.71318  0.34109  0.57103  1.0000
  O   O57       1.0  0.85271  0.36434  0.57103  1.0000
  O   O58       1.0  0.99225  0.38760  0.57103  1.0000
  O   O59       1.0  0.13178  0.41085  0.57103  1.0000
  O   O60       1.0  0.27132  0.43411  0.57103  1.0000
  O   O61       1.0  0.41085  0.45736  0.57103  1.0000
  O   O62       1.0  0.55039  0.48062  0.57103  1.0000
  O   O63       1.0  0.68992  0.50388  0.57103  1.0000
  O   O64       1.0  0.82946  0.52713  0.57103  1.0000
  O   O65       1.0  0.96899  0.55039  0.57103  1.0000
  O   O66       1.0  0.10853  0.57364  0.57103  1.0000
  O   O67       1.0  0.24806  0.59690  0.57103  1.0000
  O   O68       1.0  0.38760  0.62016  0.57103  1.0000
  O   O69       1.0  0.52713  0.64341  0.57103  1.0000
  O   O70       1.0  0.66667  0.66667  0.57103  1.0000
  O   O71       1.0  0.80620  0.68992  0.57103  1.0000
  O   O72       1.0  0.94574  0.71318  0.57103  1.0000
  O   O73       1.0  0.08527  0.73643  0.57103  1.0000
  O   O74       1.0  0.22481  0.75969  0.57103  1.0000
  O   O75       1.0  0.36434  0.78295  0.57103  1.0000
  O   O76       1.0  0.50388  0.80620  0.57103  1.0000
  O   O77       1.0  0.64341  0.82946  0.57103  1.0000
  O   O78       1.0  0.78295  0.85271  0.57103  1.0000
  O   O79       1.0  0.92248  0.87597  0.57103  1.0000
  O   O80       1.0  0.06202  0.89922  0.57103  1.0000
  O   O81       1.0  0.20155  0.92248  0.57103  1.0000
  O   O82       1.0  0.34109  0.94574  0.57103  1.0000
  O   O83       1.0  0.48062  0.96899  0.57103  1.0000
  O   O84       1.0  0.62016  0.99225  0.57103  1.0000
  O   O85       1.0  0.75969  0.01550  0.57103  1.0000
  O   O86       1.0  0.89922  0.03876  0.57103  1.0000
  O   O87       1.0  0.93798  0.10078  0.49414  1.0000
  O   O88       1.0  0.07752  0.12403  0.49414  1.0000
  O   O89       1.0  0.21705  0.14729  0.49414  1.0000
  O   O90       1.0  0.35659  0.17054  0.49414  1.0000
  O   O91       1.0  0.49612  0.19380  0.49414  1.0000
  O   O92       1.0  0.63566  0.21705  0.49414  1.0000
  O   O93       1.0  0.77519  0.24031  0.49414  1.0000
  O   O94       1.0  0.91473  0.26357  0.49414  1.0000
  O   O95       1.0  0.05426  0.28682  0.49414  1.0000
  O   O96       1.0  0.19380  0.31008  0.49414  1.0000
  O   O97       1.0  0.33333  0.33333  0.49414  1.0000
  O   O98       1.0  0.47287  0.35659  0.49414  1.0000
  O   O99       1.0  0.61240  0.37984  0.49414  1.0000
  O   O100      1.0  0.75194  0.40310  0.49414  1.0000
  O   O101      1.0  0.89147  0.42636  0.49414  1.0000
  O   O102      1.0  0.03101  0.44961  0.49414  1.0000
  O   O103      1.0  0.17054  0.47287  0.49414  1.0000
  O   O104      1.0  0.31008  0.49612  0.49414  1.0000
  O   O105      1.0  0.44961  0.51938  0.49414  1.0000
  O   O106      1.0  0.58915  0.54264  0.49414  1.0000
  O   O107      1.0  0.72868  0.56589  0.49414  1.0000
  O   O108      1.0  0.86822  0.58915  0.49414  1.0000
  O   O109      1.0  0.00775  0.61240  0.49414  1.0000
  O   O110      1.0  0.14729  0.63566  0.49414  1.0000
  O   O111      1.0  0.28682  0.65891  0.49414  1.0000
  O   O112      1.0  0.42636  0.68217  0.49414  1.0000
  O   O113      1.0  0.56589  0.70543  0.49414  1.0000
  O   O114      1.0  0.70543  0.72868  0.49414  1.0000
  O   O115      1.0  0.84496  0.75194  0.49414  1.0000
  O   O116      1.0  0.98450  0.77519  0.49414  1.0000
  O   O117      1.0  0.12403  0.79845  0.49414  1.0000
  O   O118      1.0  0.26357  0.82171  0.49414  1.0000
  O   O119      1.0  0.40310  0.84496  0.49414  1.0000
  O   O120      1.0  0.54264  0.86822  0.49414  1.0000
  O   O121      1.0  0.68217  0.89147  0.49414  1.0000
  O   O122      1.0  0.82171  0.91473  0.49414  1.0000
  O   O123      1.0  0.96124  0.93798  0.49414  1.0000
  O   O124      1.0  0.10078  0.96124  0.49414  1.0000
  O   O125      1.0  0.24031  0.98450  0.49414  1.0000
  O   O126      1.0  0.37984  0.00775  0.49414  1.0000
  O   O127      1.0  0.51938  0.03101  0.49414  1.0000
  O   O128      1.0  0.65891  0.05426  0.49414  1.0000
  O   O129      1.0  0.79845  0.07752  0.49414  1.0000
  O   O130      1.0  0.03876  0.06202  0.41724  1.0000
  O   O131      1.0  0.17829  0.08527  0.41724  1.0000
  O   O132      1.0  0.31783  0.10853  0.41724  1.0000
  O   O133      1.0  0.45736  0.13178  0.41724  1.0000
  O   O134      1.0  0.59690  0.15504  0.41724  1.0000
  O   O135      1.0  0.73643  0.17829  0.41724  1.0000
  O   O136      1.0  0.87597  0.20155  0.41724  1.0000
  O   O137      1.0  0.01550  0.22481  0.41724  1.0000
  O   O138      1.0  0.15504  0.24806  0.41724  1.0000
  O   O139      1.0  0.29457  0.27132  0.41724  1.0000
  O   O140      1.0  0.43411  0.29457  0.41724  1.0000
  O   O141      1.0  0.57364  0.31783  0.41724  1.0000
  O   O142      1.0  0.71318  0.34109  0.41724  1.0000
  O   O143      1.0  0.85271  0.36434  0.41724  1.0000
  O   O144      1.0  0.99225  0.38760  0.41724  1.0000
  O   O145      1.0  0.13178  0.41085  0.41724  1.0000
  O   O146      1.0  0.27132  0.43411  0.41724  1.0000
  O   O147      1.0  0.41085  0.45736  0.41724  1.0000
  O   O148      1.0  0.55039  0.48062  0.41724  1.0000
  O   O149      1.0  0.68992  0.50388  0.41724  1.0000
  O   O150      1.0  0.82946  0.52713  0.41724  1.0000
  O   O151      1.0  0.96899  0.55039  0.41724  1.0000
  O   O152      1.0  0.10853  0.57364  0.41724  1.0000
  O   O153      1.0  0.24806  0.59690  0.41724  1.0000
  O   O154      1.0  0.38760  0.62016  0.41724  1.0000
  O   O155      1.0  0.52713  0.64341  0.41724  1.0000
  O   O156      1.0  0.66667  0.66667  0.41724  1.0000
  O   O157      1.0  0.80620  0.68992  0.41724  1.0000
  O   O158      1.0  0.94574  0.71318  0.41724  1.0000
  O   O159      1.0  0.08527  0.73643  0.41724  1.0000
  O   O160      1.0  0.22481  0.75969  0.41724  1.0000
  O   O161      1.0  0.36434  0.78295  0.41724  1.0000
  O   O162      1.0  0.50388  0.80620  0.41724  1.0000
  O   O163      1.0  0.64341  0.82946  0.41724  1.0000
  O   O164      1.0  0.78295  0.85271  0.41724  1.0000
  O   O165      1.0  0.92248  0.87597  0.41724  1.0000
  O   O166      1.0  0.06202  0.89922  0.41724  1.0000
  O   O167      1.0  0.20155  0.92248  0.41724  1.0000
  O   O168      1.0  0.34109  0.94574  0.41724  1.0000
  O   O169      1.0  0.48062  0.96899  0.41724  1.0000
  O   O170      1.0  0.62016  0.99225  0.41724  1.0000
  O   O171      1.0  0.75969  0.01550  0.41724  1.0000
  O   O172      1.0  0.89922  0.03876  0.41724  1.0000
