data_image0
_cell_length_a       3.2606
_cell_length_b       3.2606
_cell_length_c       5.24457
_cell_angle_alpha    90
_cell_angle_beta     90
_cell_angle_gamma    120

_symmetry_space_group_name_H-M    "P 1"
_symmetry_int_tables_number       1

loop_
  _symmetry_equiv_pos_as_xyz
  'x, y, z'

loop_
  _atom_site_label
  _atom_site_occupancy
  _atom_site_fract_x
  _atom_site_fract_y
  _atom_site_fract_z
  _atom_site_thermal_displace_type
  _atom_site_B_iso_or_equiv
  _atom_site_type_symbol
  Zn1      1.0000 0.66667  0.33333  0.50121  Biso   1.000  Zn
  Zn2      1.0000 0.33333  0.66667  0.00121  Biso   1.000  Zn
  O1       1.0000 0.66665  0.33330  0.88129  Biso   1.000  O 
  O2       1.0000 0.33335  0.66670  0.38129  Biso   1.000  O 
